*	IN OUT GND 
.SUBCKT GaussLPF 1 2 3
EGAUSS 2 3 FREQ 1 3 
+ 0.00 0.00000000000000e+000 0.00000000000000e+000
+ 256000000.00 -2.24941005666891e-003 -9.21600000000000e+001
+ 512000000.00 -8.99764022667485e-003 -1.84320000000000e+002
+ 768000000.00 -2.02446905100179e-002 -2.76480000000000e+002
+ 1024000000.00 -3.59905609066981e-002 -3.68640000000000e+002
+ 1280000000.00 -5.62352514167162e-002 -4.60800000000000e+002
+ 1536000000.00 -8.09787620400716e-002 -5.52960000000000e+002
+ 1792000000.00 -1.10221092776764e-001 -6.45120000000000e+002
+ 2048000000.00 -1.43962243626794e-001 -7.37280000000000e+002
+ 2304000000.00 -1.82202214590161e-001 -8.29440000000000e+002
+ 2560000000.00 -2.24941005666865e-001 -9.21600000000000e+002
+ 2816000000.00 -2.72178616856907e-001 -1.01376000000000e+003
+ 3072000000.00 -3.23915048160286e-001 -1.10592000000000e+003
+ 3328000000.00 -3.80150299577002e-001 -1.19808000000000e+003
+ 3584000000.00 -4.40884371107056e-001 -1.29024000000000e+003
+ 3840000000.00 -5.06117262750447e-001 -1.38240000000000e+003
+ 4096000000.00 -5.75848974507175e-001 -1.47456000000000e+003
+ 4352000000.00 -6.50079506377241e-001 -1.56672000000000e+003
+ 4608000000.00 -7.28808858360644e-001 -1.65888000000000e+003
+ 4864000000.00 -8.12037030457383e-001 -1.75104000000000e+003
+ 5120000000.00 -8.99764022667460e-001 -1.84320000000000e+003
+ 5376000000.00 -9.91989834990875e-001 -1.93536000000000e+003
+ 5632000000.00 -1.08871446742763e+000 -2.02752000000000e+003
+ 5888000000.00 -1.18993791997772e+000 -2.11968000000000e+003
+ 6144000000.00 -1.29566019264114e+000 -2.21184000000000e+003
+ 6400000000.00 -1.40588128541791e+000 -2.30400000000000e+003
+ 6656000000.00 -1.52060119830801e+000 -2.39616000000000e+003
+ 6912000000.00 -1.63981993131145e+000 -2.48832000000000e+003
+ 7168000000.00 -1.76353748442822e+000 -2.58048000000000e+003
+ 7424000000.00 -1.89175385765834e+000 -2.67264000000000e+003
+ 7680000000.00 -2.02446905100179e+000 -2.76480000000000e+003
+ 7936000000.00 -2.16168306445857e+000 -2.85696000000000e+003
+ 8192000000.00 -2.30339589802870e+000 -2.94912000000000e+003
+ 8448000000.00 -2.44960755171216e+000 -3.04128000000000e+003
+ 8704000000.00 -2.60031802550896e+000 -3.13344000000000e+003
+ 8960000000.00 -2.75552731941910e+000 -3.22560000000000e+003
+ 9216000000.00 -2.91523543344257e+000 -3.31776000000000e+003
+ 9472000000.00 -3.07944236757938e+000 -3.40992000000000e+003
+ 9728000000.00 -3.24814812182953e+000 -3.50208000000000e+003
+ 9984000000.00 -3.42135269619302e+000 -3.59424000000000e+003
+ 10240000000.00 -3.59905609066984e+000 -3.68640000000000e+003
+ 10496000000.00 -3.78125830526000e+000 -3.77856000000000e+003
+ 10752000000.00 -3.96795933996350e+000 -3.87072000000000e+003
+ 11008000000.00 -4.15915919478034e+000 -3.96288000000000e+003
+ 11264000000.00 -4.35485786971051e+000 -4.05504000000000e+003
+ 11520000000.00 -4.55505536475402e+000 -4.14720000000000e+003
+ 11776000000.00 -4.75975167991087e+000 -4.23936000000000e+003
+ 12032000000.00 -4.96894681518105e+000 -4.33152000000000e+003
+ 12288000000.00 -5.18264077056457e+000 -4.42368000000000e+003
+ 12544000000.00 -5.40083354606143e+000 -4.51584000000000e+003
+ 12800000000.00 -5.62352514167163e+000 -4.60800000000000e+003
+ 13056000000.00 -5.85071555739516e+000 -4.70016000000000e+003
+ 13312000000.00 -6.08240479323203e+000 -4.79232000000000e+003
+ 13568000000.00 -6.31859284918224e+000 -4.88448000000000e+003
+ 13824000000.00 -6.55927972524579e+000 -4.97664000000000e+003
+ 14080000000.00 -6.80446542142267e+000 -5.06880000000000e+003
+ 14336000000.00 -7.05414993771289e+000 -5.16096000000000e+003
+ 14592000000.00 -7.30833327411645e+000 -5.25312000000000e+003
+ 14848000000.00 -7.56701543063334e+000 -5.34528000000000e+003
+ 15104000000.00 -7.83019640726358e+000 -5.43744000000000e+003
+ 15360000000.00 -8.09787620400715e+000 -5.52960000000000e+003
+ 15616000000.00 -8.37005482086405e+000 -5.62176000000000e+003
+ 15872000000.00 -8.64673225783430e+000 -5.71392000000000e+003
+ 16128000000.00 -8.92790851491788e+000 -5.80608000000000e+003
+ 16384000000.00 -9.21358359211480e+000 -5.89824000000000e+003
+ 16640000000.00 -9.50375748942505e+000 -5.99040000000000e+003
+ 16896000000.00 -9.79843020684865e+000 -6.08256000000000e+003
+ 17152000000.00 -1.00976017443856e+001 -6.17472000000000e+003
+ 17408000000.00 -1.04012721020358e+001 -6.26688000000000e+003
+ 17664000000.00 -1.07094412797994e+001 -6.35904000000000e+003
+ 17920000000.00 -1.10221092776764e+001 -6.45120000000000e+003
+ 18176000000.00 -1.13392760956667e+001 -6.54336000000000e+003
+ 18432000000.00 -1.16609417337703e+001 -6.63552000000000e+003
+ 18688000000.00 -1.19871061919872e+001 -6.72768000000000e+003
+ 18944000000.00 -1.23177694703175e+001 -6.81984000000000e+003
+ 19200000000.00 -1.26529315687612e+001 -6.91200000000000e+003
+ 19456000000.00 -1.29925924873181e+001 -7.00416000000000e+003
+ 19712000000.00 -1.33367522259884e+001 -7.09632000000000e+003
+ 19968000000.00 -1.36854107847721e+001 -7.18848000000000e+003
+ 20224000000.00 -1.40385681636691e+001 -7.28064000000000e+003
+ 20480000000.00 -1.43962243626794e+001 -7.37280000000000e+003
+ 20736000000.00 -1.47583793818030e+001 -7.46496000000000e+003
+ 20992000000.00 -1.51250332210400e+001 -7.55712000000000e+003
+ 21248000000.00 -1.54961858803903e+001 -7.64928000000000e+003
+ 21504000000.00 -1.58718373598540e+001 -7.74144000000000e+003
+ 21760000000.00 -1.62519876594310e+001 -7.83360000000000e+003
+ 22016000000.00 -1.66366367791213e+001 -7.92576000000000e+003
+ 22272000000.00 -1.70257847189250e+001 -8.01792000000000e+003
+ 22528000000.00 -1.74194314788420e+001 -8.11008000000000e+003
+ 22784000000.00 -1.78175770588724e+001 -8.20224000000000e+003
+ 23040000000.00 -1.82202214590161e+001 -8.29440000000000e+003
+ 23296000000.00 -1.86273646792731e+001 -8.38656000000000e+003
+ 23552000000.00 -1.90390067196435e+001 -8.47872000000000e+003
+ 23808000000.00 -1.94551475801272e+001 -8.57088000000000e+003
+ 24064000000.00 -1.98757872607242e+001 -8.66304000000000e+003
+ 24320000000.00 -2.03009257614346e+001 -8.75520000000000e+003
+ 24576000000.00 -2.07305630822583e+001 -8.84736000000000e+003
+ 24832000000.00 -2.11646992231953e+001 -8.93952000000000e+003
+ 25088000000.00 -2.16033341842457e+001 -9.03168000000000e+003
+ 25344000000.00 -2.20464679654095e+001 -9.12384000000000e+003
+ 25600000000.00 -2.24941005666865e+001 -9.21600000000000e+003
+ 25856000000.00 -2.29462319880769e+001 -9.30816000000000e+003
+ 26112000000.00 -2.34028622295806e+001 -9.40032000000000e+003
+ 26368000000.00 -2.38639912911977e+001 -9.49248000000000e+003
+ 26624000000.00 -2.43296191729281e+001 -9.58464000000000e+003
+ 26880000000.00 -2.47997458747719e+001 -9.67680000000000e+003
+ 27136000000.00 -2.52743713967290e+001 -9.76896000000000e+003
+ 27392000000.00 -2.57534957387994e+001 -9.86112000000000e+003
+ 27648000000.00 -2.62371189009832e+001 -9.95328000000000e+003
+ 27904000000.00 -2.67252408832803e+001 -1.00454400000000e+004
+ 28160000000.00 -2.72178616856907e+001 -1.01376000000000e+004
+ 28416000000.00 -2.77149813082145e+001 -1.02297600000000e+004
+ 28672000000.00 -2.82165997508516e+001 -1.03219200000000e+004
+ 28928000000.00 -2.87227170136020e+001 -1.04140800000000e+004
+ 29184000000.00 -2.92333330964658e+001 -1.05062400000000e+004
+ 29440000000.00 -2.97484479994429e+001 -1.05984000000000e+004
+ 29696000000.00 -3.02680617225334e+001 -1.06905600000000e+004
+ 29952000000.00 -3.07921742657372e+001 -1.07827200000000e+004
+ 30208000000.00 -3.13207856290543e+001 -1.08748800000000e+004
+ 30464000000.00 -3.18538958124848e+001 -1.09670400000000e+004
+ 30720000000.00 -3.23915048160286e+001 -1.10592000000000e+004
+ 30976000000.00 -3.29336126396857e+001 -1.11513600000000e+004
+ 31232000000.00 -3.34802192834562e+001 -1.12435200000000e+004
+ 31488000000.00 -3.40313247473400e+001 -1.13356800000000e+004
+ 31744000000.00 -3.45869290313372e+001 -1.14278400000000e+004
+ 32000000000.00 -3.51470321354477e+001 -1.15200000000000e+004
+ 32256000000.00 -3.57116340596715e+001 -1.16121600000000e+004
+ 32512000000.00 -3.62807348040087e+001 -1.17043200000000e+004
+ 32768000000.00 -3.68543343684592e+001 -1.17964800000000e+004
+ 33024000000.00 -3.74324327530230e+001 -1.18886400000000e+004
+ 33280000000.00 -3.80150299577002e+001 -1.19808000000000e+004
+ 33536000000.00 -3.86021259824907e+001 -1.20729600000000e+004
+ 33792000000.00 -3.91937208273946e+001 -1.21651200000000e+004
+ 34048000000.00 -3.97898144924118e+001 -1.22572800000000e+004
+ 34304000000.00 -4.03904069775423e+001 -1.23494400000000e+004
+ 34560000000.00 -4.09954982827862e+001 -1.24416000000000e+004
+ 34816000000.00 -4.16050884081434e+001 -1.25337600000000e+004
+ 35072000000.00 -4.22191773536139e+001 -1.26259200000000e+004
+ 35328000000.00 -4.28377651191978e+001 -1.27180800000000e+004
+ 35584000000.00 -4.34608517048950e+001 -1.28102400000000e+004
+ 35840000000.00 -4.40884371107056e+001 -1.29024000000000e+004
+ 36096000000.00 -4.47205213366295e+001 -1.29945600000000e+004
+ 36352000000.00 -4.53571043826667e+001 -1.30867200000000e+004
+ 36608000000.00 -4.59981862488172e+001 -1.31788800000000e+004
+ 36864000000.00 -4.66437669350812e+001 -1.32710400000000e+004
+ 37120000000.00 -4.72938464414584e+001 -1.33632000000000e+004
+ 37376000000.00 -4.79484247679490e+001 -1.34553600000000e+004
+ 37632000000.00 -4.86075019145529e+001 -1.35475200000000e+004
+ 37888000000.00 -4.92710778812701e+001 -1.36396800000000e+004
+ 38144000000.00 -4.99391526681007e+001 -1.37318400000000e+004
+ 38400000000.00 -5.06117262750447e+001 -1.38240000000000e+004
+ 38656000000.00 -5.12887987021019e+001 -1.39161600000000e+004
+ 38912000000.00 -5.19703699492725e+001 -1.40083200000000e+004
+ 39168000000.00 -5.26564400165565e+001 -1.41004800000000e+004
+ 39424000000.00 -5.33470089039538e+001 -1.41926400000000e+004
+ 39680000000.00 -5.40420766114644e+001 -1.42848000000000e+004
+ 39936000000.00 -5.47416431390883e+001 -1.43769600000000e+004
+ 40192000000.00 -5.54457084868256e+001 -1.44691200000000e+004
+ 40448000000.00 -5.61542726546762e+001 -1.45612800000000e+004
+ 40704000000.00 -5.68673356426402e+001 -1.46534400000000e+004
+ 40960000000.00 -5.75848974507175e+001 -1.47456000000000e+004
+ 41216000000.00 -5.83069580789081e+001 -1.48377600000000e+004
+ 41472000000.00 -5.90335175272121e+001 -1.49299200000000e+004
+ 41728000000.00 -5.97645757956294e+001 -1.50220800000000e+004
+ 41984000000.00 -6.05001328841600e+001 -1.51142400000000e+004
+ 42240000000.00 -6.12401887928040e+001 -1.52064000000000e+004
+ 42496000000.00 -6.19847435215614e+001 -1.52985600000000e+004
+ 42752000000.00 -6.27337970704320e+001 -1.53907200000000e+004
+ 43008000000.00 -6.34873494394160e+001 -1.54828800000000e+004
+ 43264000000.00 -6.42454006285134e+001 -1.55750400000000e+004
+ 43520000000.00 -6.50079506377240e+001 -1.56672000000000e+004
+ 43776000000.00 -6.57749994670480e+001 -1.57593600000000e+004
+ 44032000000.00 -6.65465471164854e+001 -1.58515200000000e+004
+ 44288000000.00 -6.73225935860361e+001 -1.59436800000000e+004
+ 44544000000.00 -6.81031388757001e+001 -1.60358400000000e+004
+ 44800000000.00 -6.88881829854775e+001 -1.61280000000000e+004
+ 45056000000.00 -6.96777259153682e+001 -1.62201600000000e+004
+ 45312000000.00 -7.04717676653722e+001 -1.63123200000000e+004
+ 45568000000.00 -7.12703082354896e+001 -1.64044800000000e+004
+ 45824000000.00 -7.20733476257203e+001 -1.64966400000000e+004
+ 46080000000.00 -7.28808858360643e+001 -1.65888000000000e+004
+ 46336000000.00 -7.36929228665217e+001 -1.66809600000000e+004
+ 46592000000.00 -7.45094587170924e+001 -1.67731200000000e+004
+ 46848000000.00 -7.53304933877765e+001 -1.68652800000000e+004
+ 47104000000.00 -7.61560268785739e+001 -1.69574400000000e+004
+ 47360000000.00 -7.69860591894846e+001 -1.70496000000000e+004
+ 47616000000.00 -7.78205903205087e+001 -1.71417600000000e+004
+ 47872000000.00 -7.86596202716461e+001 -1.72339200000000e+004
+ 48128000000.00 -7.95031490428968e+001 -1.73260800000000e+004
+ 48384000000.00 -8.03511766342609e+001 -1.74182400000000e+004
+ 48640000000.00 -8.12037030457383e+001 -1.75104000000000e+004
+ 48896000000.00 -8.20607282773291e+001 -1.76025600000000e+004
+ 49152000000.00 -8.29222523290332e+001 -1.76947200000000e+004
+ 49408000000.00 -8.37882752008506e+001 -1.77868800000000e+004
+ 49664000000.00 -8.46587968927814e+001 -1.78790400000000e+004
+ 49920000000.00 -8.55338174048255e+001 -1.79712000000000e+004
+ 50176000000.00 -8.64133367369829e+001 -1.80633600000000e+004
+ 50432000000.00 -8.72973548892537e+001 -1.81555200000000e+004
+ 50688000000.00 -8.81858718616378e+001 -1.82476800000000e+004
+ 50944000000.00 -8.90788876541353e+001 -1.83398400000000e+004
+ 51200000000.00 -8.99764022667460e+001 -1.84320000000000e+004
+ 51456000000.00 -9.08784156994702e+001 -1.85241600000000e+004
+ 51712000000.00 -9.17849279523077e+001 -1.86163200000000e+004
+ 51968000000.00 -9.26959390252585e+001 -1.87084800000000e+004
+ 52224000000.00 -9.36114489183226e+001 -1.88006400000000e+004
+ 52480000000.00 -9.45314576315001e+001 -1.88928000000000e+004
+ 52736000000.00 -9.54559651647909e+001 -1.89849600000000e+004
+ 52992000000.00 -9.63849715181951e+001 -1.90771200000000e+004
+ 53248000000.00 -9.73184766917125e+001 -1.91692800000000e+004
+ 53504000000.00 -9.82564806853434e+001 -1.92614400000000e+004
+ 53760000000.00 -9.91989834990875e+001 -1.93536000000000e+004
+ 54016000000.00 -1.00145985132945e+002 -1.94457600000000e+004
+ 54272000000.00 -1.01097485586916e+002 -1.95379200000000e+004
+ 54528000000.00 -1.02053484861000e+002 -1.96300800000000e+004
+ 54784000000.00 -1.03013982955198e+002 -1.97222400000000e+004
+ 55040000000.00 -1.03978979869508e+002 -1.98144000000000e+004
+ 55296000000.00 -1.04948475603933e+002 -1.99065600000000e+004
+ 55552000000.00 -1.05922470158470e+002 -1.99987200000000e+004
+ 55808000000.00 -1.06900963533121e+002 -2.00908800000000e+004
+ 56064000000.00 -1.07883955727885e+002 -2.01830400000000e+004
+ 56320000000.00 -1.08871446742763e+002 -2.02752000000000e+004
+ 56576000000.00 -1.09863436577754e+002 -2.03673600000000e+004
+ 56832000000.00 -1.10859925232858e+002 -2.04595200000000e+004
+ 57088000000.00 -1.11860912708075e+002 -2.05516800000000e+004
+ 57344000000.00 -1.12866399003406e+002 -2.06438400000000e+004
+ 57600000000.00 -1.13876384118851e+002 -2.07360000000000e+004
+ 57856000000.00 -1.14890868054408e+002 -2.08281600000000e+004
+ 58112000000.00 -1.15909850810079e+002 -2.09203200000000e+004
+ 58368000000.00 -1.16933332385863e+002 -2.10124800000000e+004
+ 58624000000.00 -1.17961312781761e+002 -2.11046400000000e+004
+ 58880000000.00 -1.18993791997772e+002 -2.11968000000000e+004
+ 59136000000.00 -1.20030770033896e+002 -2.12889600000000e+004
+ 59392000000.00 -1.21072246890134e+002 -2.13811200000000e+004
+ 59648000000.00 -1.22118222566484e+002 -2.14732800000000e+004
+ 59904000000.00 -1.23168697062949e+002 -2.15654400000000e+004
+ 60160000000.00 -1.24223670379526e+002 -2.16576000000000e+004
+ 60416000000.00 -1.25283142516217e+002 -2.17497600000000e+004
+ 60672000000.00 -1.26347113473021e+002 -2.18419200000000e+004
+ 60928000000.00 -1.27415583249939e+002 -2.19340800000000e+004
+ 61184000000.00 -1.28488551846970e+002 -2.20262400000000e+004
+ 61440000000.00 -1.29566019264114e+002 -2.21184000000000e+004
+ 61696000000.00 -1.30647985501372e+002 -2.22105600000000e+004
+ 61952000000.00 -1.31734450558743e+002 -2.23027200000000e+004
+ 62208000000.00 -1.32825414436227e+002 -2.23948800000000e+004
+ 62464000000.00 -1.33920877133825e+002 -2.24870400000000e+004
+ 62720000000.00 -1.35020838651536e+002 -2.25792000000000e+004
+ 62976000000.00 -1.36125298989360e+002 -2.26713600000000e+004
+ 63232000000.00 -1.37234258147298e+002 -2.27635200000000e+004
+ 63488000000.00 -1.38347716125349e+002 -2.28556800000000e+004
+ 63744000000.00 -1.39465672923513e+002 -2.29478400000000e+004
+ 64000000000.00 -1.40588128541791e+002 -2.30400000000000e+004
+ 64256000000.00 -1.41715082980182e+002 -2.31321600000000e+004
+ 64512000000.00 -1.42846536238686e+002 -2.32243200000000e+004
+ 64768000000.00 -1.43982488317304e+002 -2.33164800000000e+004
+ 65024000000.00 -1.45122939216035e+002 -2.34086400000000e+004
+ 65280000000.00 -1.46267888934879e+002 -2.35008000000000e+004
+ 65536000000.00 -1.47417337473837e+002 -2.35929600000000e+004
+ 65792000000.00 -1.48571284832908e+002 -2.36851200000000e+004
+ 66048000000.00 -1.49729731012092e+002 -2.37772800000000e+004
+ 66304000000.00 -1.50892676011390e+002 -2.38694400000000e+004
+ 66560000000.00 -1.52060119830801e+002 -2.39616000000000e+004
+ 66816000000.00 -1.53232062470325e+002 -2.40537600000000e+004
+ 67072000000.00 -1.54408503929963e+002 -2.41459200000000e+004
+ 67328000000.00 -1.55589444209714e+002 -2.42380800000000e+004
+ 67584000000.00 -1.56774883309578e+002 -2.43302400000000e+004
+ 67840000000.00 -1.57964821229556e+002 -2.44224000000000e+004
+ 68096000000.00 -1.59159257969647e+002 -2.45145600000000e+004
+ 68352000000.00 -1.60358193529852e+002 -2.46067200000000e+004
+ 68608000000.00 -1.61561627910169e+002 -2.46988800000000e+004
+ 68864000000.00 -1.62769561110600e+002 -2.47910400000000e+004
+ 69120000000.00 -1.63981993131145e+002 -2.48832000000000e+004
+ 69376000000.00 -1.65198923971802e+002 -2.49753600000000e+004
+ 69632000000.00 -1.66420353632573e+002 -2.50675200000000e+004
+ 69888000000.00 -1.67646282113458e+002 -2.51596800000000e+004
+ 70144000000.00 -1.68876709414456e+002 -2.52518400000000e+004
+ 70400000000.00 -1.70111635535567e+002 -2.53440000000000e+004
+ 70656000000.00 -1.71351060476791e+002 -2.54361600000000e+004
+ 70912000000.00 -1.72594984238129e+002 -2.55283200000000e+004
+ 71168000000.00 -1.73843406819580e+002 -2.56204800000000e+004
+ 71424000000.00 -1.75096328221145e+002 -2.57126400000000e+004
+ 71680000000.00 -1.76353748442822e+002 -2.58048000000000e+004
+ 71936000000.00 -1.77615667484613e+002 -2.58969600000000e+004
+ 72192000000.00 -1.78882085346518e+002 -2.59891200000000e+004
+ 72448000000.00 -1.80153002028536e+002 -2.60812800000000e+004
+ 72704000000.00 -1.81428417530667e+002 -2.61734400000000e+004
+ 72960000000.00 -1.82708331852911e+002 -2.62656000000000e+004
+ 73216000000.00 -1.83992744995269e+002 -2.63577600000000e+004
+ 73472000000.00 -1.85281656957740e+002 -2.64499200000000e+004
+ 73728000000.00 -1.86575067740325e+002 -2.65420800000000e+004
+ 73984000000.00 -1.87872977343022e+002 -2.66342400000000e+004
+ 74240000000.00 -1.89175385765834e+002 -2.67264000000000e+004
+ 74496000000.00 -1.90482293008758e+002 -2.68185600000000e+004
+ 74752000000.00 -1.91793699071796e+002 -2.69107200000000e+004
+ 75008000000.00 -1.93109603954947e+002 -2.70028800000000e+004
+ 75264000000.00 -1.94430007658212e+002 -2.70950400000000e+004
+ 75520000000.00 -1.95754910181589e+002 -2.71872000000000e+004
+ 75776000000.00 -1.97084311525081e+002 -2.72793600000000e+004
+ 76032000000.00 -1.98418211688685e+002 -2.73715200000000e+004
+ 76288000000.00 -1.99756610672403e+002 -2.74636800000000e+004
+ 76544000000.00 -2.01099508476234e+002 -2.75558400000000e+004
+ 76800000000.00 -2.02446905100179e+002 -2.76480000000000e+004
+ 77056000000.00 -2.03798800544237e+002 -2.77401600000000e+004
+ 77312000000.00 -2.05155194808408e+002 -2.78323200000000e+004
+ 77568000000.00 -2.06516087892692e+002 -2.79244800000000e+004
+ 77824000000.00 -2.07881479797090e+002 -2.80166400000000e+004
+ 78080000000.00 -2.09251370521601e+002 -2.81088000000000e+004
+ 78336000000.00 -2.10625760066226e+002 -2.82009600000000e+004
+ 78592000000.00 -2.12004648430964e+002 -2.82931200000000e+004
+ 78848000000.00 -2.13388035615815e+002 -2.83852800000000e+004
+ 79104000000.00 -2.14775921620780e+002 -2.84774400000000e+004
+ 79360000000.00 -2.16168306445857e+002 -2.85696000000000e+004
+ 79616000000.00 -2.17565190091049e+002 -2.86617600000000e+004
+ 79872000000.00 -2.18966572556353e+002 -2.87539200000000e+004
+ 80128000000.00 -2.20372453841771e+002 -2.88460800000000e+004
+ 80384000000.00 -2.21782833947302e+002 -2.89382400000000e+004
+ 80640000000.00 -2.23197712872947e+002 -2.90304000000000e+004
+ 80896000000.00 -2.24617090618705e+002 -2.91225600000000e+004
+ 81152000000.00 -2.26040967184576e+002 -2.92147200000000e+004
+ 81408000000.00 -2.27469342570561e+002 -2.93068800000000e+004
+ 81664000000.00 -2.28902216776659e+002 -2.93990400000000e+004
+ 81920000000.00 -2.30339589802870e+002 -2.94912000000000e+004
+ 82176000000.00 -2.31781461649195e+002 -2.95833600000000e+004
+ 82432000000.00 -2.33227832315632e+002 -2.96755200000000e+004
+ 82688000000.00 -2.34678701802184e+002 -2.97676800000000e+004
+ 82944000000.00 -2.36134070108848e+002 -2.98598400000000e+004
+ 83200000000.00 -2.37593937235626e+002 -2.99520000000000e+004
+ 83456000000.00 -2.39058303182518e+002 -3.00441600000000e+004
+ 83712000000.00 -2.40527167949522e+002 -3.01363200000000e+004
+ 83968000000.00 -2.42000531536640e+002 -3.02284800000000e+004
+ 84224000000.00 -2.43478393943872e+002 -3.03206400000000e+004
+ 84480000000.00 -2.44960755171216e+002 -3.04128000000000e+004
+ 84736000000.00 -2.46447615218674e+002 -3.05049600000000e+004
+ 84992000000.00 -2.47938974086245e+002 -3.05971200000000e+004
+ 85248000000.00 -2.49434831773930e+002 -3.06892800000000e+004
+ 85504000000.00 -2.50935188281728e+002 -3.07814400000000e+004
+ 85760000000.00 -2.52440043609639e+002 -3.08736000000000e+004
+ 86016000000.00 -2.53949397757664e+002 -3.09657600000000e+004
+ 86272000000.00 -2.55463250725802e+002 -3.10579200000000e+004
+ 86528000000.00 -2.56981602514053e+002 -3.11500800000000e+004
+ 86784000000.00 -2.58504453122418e+002 -3.12422400000000e+004
+ 87040000000.00 -2.60031802550896e+002 -3.13344000000000e+004
+ 87296000000.00 -2.61563650799488e+002 -3.14265600000000e+004
+ 87552000000.00 -2.63099997868192e+002 -3.15187200000000e+004
+ 87808000000.00 -2.64640843757010e+002 -3.16108800000000e+004
+ 88064000000.00 -2.66186188465942e+002 -3.17030400000000e+004
+ 88320000000.00 -2.67736031994986e+002 -3.17952000000000e+004
+ 88576000000.00 -2.69290374344144e+002 -3.18873600000000e+004
+ 88832000000.00 -2.70849215513416e+002 -3.19795200000000e+004
+ 89088000000.00 -2.72412555502800e+002 -3.20716800000000e+004
+ 89344000000.00 -2.73980394312298e+002 -3.21638400000000e+004
+ 89600000000.00 -2.75552731941910e+002 -3.22560000000000e+004
+ 89856000000.00 -2.77129568391635e+002 -3.23481600000000e+004
+ 90112000000.00 -2.78710903661473e+002 -3.24403200000000e+004
+ 90368000000.00 -2.80296737751424e+002 -3.25324800000000e+004
+ 90624000000.00 -2.81887070661489e+002 -3.26246400000000e+004
+ 90880000000.00 -2.83481902391667e+002 -3.27168000000000e+004
+ 91136000000.00 -2.85081232941958e+002 -3.28089600000000e+004
+ 91392000000.00 -2.86685062312363e+002 -3.29011200000000e+004
+ 91648000000.00 -2.88293390502881e+002 -3.29932800000000e+004
+ 91904000000.00 -2.89906217513513e+002 -3.30854400000000e+004
+ 92160000000.00 -2.91523543344257e+002 -3.31776000000000e+004
+ 92416000000.00 -2.93145367995115e+002 -3.32697600000000e+004
+ 92672000000.00 -2.94771691466087e+002 -3.33619200000000e+004
+ 92928000000.00 -2.96402513757172e+002 -3.34540800000000e+004
+ 93184000000.00 -2.98037834868370e+002 -3.35462400000000e+004
+ 93440000000.00 -2.99677654799681e+002 -3.36384000000000e+004
+ 93696000000.00 -3.01321973551106e+002 -3.37305600000000e+004
+ 93952000000.00 -3.02970791122644e+002 -3.38227200000000e+004
+ 94208000000.00 -3.04624107514295e+002 -3.39148800000000e+004
+ 94464000000.00 -3.06281922726060e+002 -3.40070400000000e+004
+ 94720000000.00 -3.07944236757938e+002 -3.40992000000000e+004
+ 94976000000.00 -3.09611049609930e+002 -3.41913600000000e+004
+ 95232000000.00 -3.11282361282035e+002 -3.42835200000000e+004
+ 95488000000.00 -3.12958171774253e+002 -3.43756800000000e+004
+ 95744000000.00 -3.14638481086584e+002 -3.44678400000000e+004
+ 96000000000.00 -3.16323289219029e+002 -3.45600000000000e+004
+ 96256000000.00 -3.18012596171587e+002 -3.46521600000000e+004
+ 96512000000.00 -3.19706401944259e+002 -3.47443200000000e+004
+ 96768000000.00 -3.21404706537044e+002 -3.48364800000000e+004
+ 97024000000.00 -3.23107509949942e+002 -3.49286400000000e+004
+ 97280000000.00 -3.24814812182953e+002 -3.50208000000000e+004
+ 97536000000.00 -3.26526613236078e+002 -3.51129600000000e+004
+ 97792000000.00 -3.28242913109316e+002 -3.52051200000000e+004
+ 98048000000.00 -3.29963711802668e+002 -3.52972800000000e+004
+ 98304000000.00 -3.31689009316133e+002 -3.53894400000000e+004
+ 98560000000.00 -3.33418805649711e+002 -3.54816000000000e+004
+ 98816000000.00 -3.35153100803402e+002 -3.55737600000000e+004
+ 99072000000.00 -3.36891894777207e+002 -3.56659200000000e+004
+ 99328000000.00 -3.38635187571126e+002 -3.57580800000000e+004
+ 99584000000.00 -3.40382979185157e+002 -3.58502400000000e+004
+ 99840000000.00 -3.42135269619302e+002 -3.59424000000000e+004
+ 100096000000.00 -3.43892058873560e+002 -3.60345600000000e+004
+ 100352000000.00 -3.45653346947932e+002 -3.61267200000000e+004
+ 100608000000.00 -3.47419133842417e+002 -3.62188800000000e+004
+ 100864000000.00 -3.49189419557015e+002 -3.63110400000000e+004
+ 101120000000.00 -3.50964204091726e+002 -3.64032000000000e+004
+ 101376000000.00 -3.52743487446551e+002 -3.64953600000000e+004
+ 101632000000.00 -3.54527269621489e+002 -3.65875200000000e+004
+ 101888000000.00 -3.56315550616541e+002 -3.66796800000000e+004
+ 102144000000.00 -3.58108330431706e+002 -3.67718400000000e+004
+ 102400000000.00 -3.59905609066984e+002 -3.68640000000000e+004
+ 102656000000.00 -3.61707386522376e+002 -3.69561600000000e+004
+ 102912000000.00 -3.63513662797881e+002 -3.70483200000000e+004
+ 103168000000.00 -3.65324437893499e+002 -3.71404800000000e+004
+ 103424000000.00 -3.67139711809231e+002 -3.72326400000000e+004
+ 103680000000.00 -3.68959484545076e+002 -3.73248000000000e+004
+ 103936000000.00 -3.70783756101034e+002 -3.74169600000000e+004
+ 104192000000.00 -3.72612526477105e+002 -3.75091200000000e+004
+ 104448000000.00 -3.74445795673290e+002 -3.76012800000000e+004
+ 104704000000.00 -3.76283563689589e+002 -3.76934400000000e+004
+ 104960000000.00 -3.78125830526000e+002 -3.77856000000000e+004
+ 105216000000.00 -3.79972596182525e+002 -3.78777600000000e+004
+ 105472000000.00 -3.81823860659164e+002 -3.79699200000000e+004
+ 105728000000.00 -3.83679623955915e+002 -3.80620800000000e+004
+ 105984000000.00 -3.85539886072780e+002 -3.81542400000000e+004
+ 106240000000.00 -3.87404647009758e+002 -3.82464000000000e+004
+ 106496000000.00 -3.89273906766850e+002 -3.83385600000000e+004
+ 106752000000.00 -3.91147665344055e+002 -3.84307200000000e+004
+ 107008000000.00 -3.93025922741374e+002 -3.85228800000000e+004
+ 107264000000.00 -3.94908678958805e+002 -3.86150400000000e+004
+ 107520000000.00 -3.96795933996350e+002 -3.87072000000000e+004
+ 107776000000.00 -3.98687687854008e+002 -3.87993600000000e+004
+ 108032000000.00 -4.00583940531780e+002 -3.88915200000000e+004
+ 108288000000.00 -4.02484692029665e+002 -3.89836800000000e+004
+ 108544000000.00 -4.04389942347664e+002 -3.90758400000000e+004
+ 108800000000.00 -4.06299691485775e+002 -3.91680000000000e+004
+ 109056000000.00 -4.08213939444000e+002 -3.92601600000000e+004
+ 109312000000.00 -4.10132686222339e+002 -3.93523200000000e+004
+ 109568000000.00 -4.12055931820790e+002 -3.94444800000000e+004
+ 109824000000.00 -4.13983676239355e+002 -3.95366400000000e+004
+ 110080000000.00 -4.15915919478034e+002 -3.96288000000000e+004
+ 110336000000.00 -4.17852661536825e+002 -3.97209600000000e+004
+ 110592000000.00 -4.19793902415730e+002 -3.98131200000000e+004
+ 110848000000.00 -4.21739642114749e+002 -3.99052800000000e+004
+ 111104000000.00 -4.23689880633881e+002 -3.99974400000000e+004
+ 111360000000.00 -4.25644617973126e+002 -4.00896000000000e+004
+ 111616000000.00 -4.27603854132484e+002 -4.01817600000000e+004
+ 111872000000.00 -4.29567589111956e+002 -4.02739200000000e+004
+ 112128000000.00 -4.31535822911541e+002 -4.03660800000000e+004
+ 112384000000.00 -4.33508555531239e+002 -4.04582400000000e+004
+ 112640000000.00 -4.35485786971051e+002 -4.05504000000000e+004
+ 112896000000.00 -4.37467517230976e+002 -4.06425600000000e+004
+ 113152000000.00 -4.39453746311014e+002 -4.07347200000000e+004
+ 113408000000.00 -4.41444474211166e+002 -4.08268800000000e+004
+ 113664000000.00 -4.43439700931431e+002 -4.09190400000000e+004
+ 113920000000.00 -4.45439426471810e+002 -4.10112000000000e+004
+ 114176000000.00 -4.47443650832302e+002 -4.11033600000000e+004
+ 114432000000.00 -4.49452374012907e+002 -4.11955200000000e+004
+ 114688000000.00 -4.51465596013625e+002 -4.12876800000000e+004
+ 114944000000.00 -4.53483316834457e+002 -4.13798400000000e+004
+ 115200000000.00 -4.55505536475402e+002 -4.14720000000000e+004
+ 115456000000.00 -4.57532254936460e+002 -4.15641600000000e+004
+ 115712000000.00 -4.59563472217632e+002 -4.16563200000000e+004
+ 115968000000.00 -4.61599188318917e+002 -4.17484800000000e+004
+ 116224000000.00 -4.63639403240316e+002 -4.18406400000000e+004
+ 116480000000.00 -4.65684116981828e+002 -4.19328000000000e+004
+ 116736000000.00 -4.67733329543453e+002 -4.20249600000000e+004
+ 116992000000.00 -4.69787040925191e+002 -4.21171200000000e+004
+ 117248000000.00 -4.71845251127043e+002 -4.22092800000000e+004
+ 117504000000.00 -4.73907960149008e+002 -4.23014400000000e+004
+ 117760000000.00 -4.75975167991087e+002 -4.23936000000000e+004
+ 118016000000.00 -4.78046874653279e+002 -4.24857600000000e+004
+ 118272000000.00 -4.80123080135584e+002 -4.25779200000000e+004
+ 118528000000.00 -4.82203784438002e+002 -4.26700800000000e+004
+ 118784000000.00 -4.84288987560534e+002 -4.27622400000000e+004
+ 119040000000.00 -4.86378689503179e+002 -4.28544000000000e+004
+ 119296000000.00 -4.88472890265938e+002 -4.29465600000000e+004