*CRPAT signal generator
.SUBCKT CRPAT_src OutP OutN GND_SRC 
VSRCP OutP GND_SRC PWL (
+ 0.000000e+000 0.000000
+ 1.000000e-011 0.000000
+ 1.100000e-010 0.400000
+ 2.910000e-009 0.400000
+ 5.710000e-009 0.000000
+ 8.510000e-009 0.000000
+ 1.131000e-008 0.000000
+ 1.411000e-008 0.000000
+ 1.691000e-008 0.000000
+ 1.971000e-008 0.400000
+ 2.251000e-008 0.000000
+ 2.531000e-008 0.400000
+ 2.811000e-008 0.400000
+ 3.091000e-008 0.000000
+ 3.371000e-008 0.000000
+ 3.651000e-008 0.400000
+ 3.931000e-008 0.400000
+ 4.211000e-008 0.400000
+ 4.491000e-008 0.000000
+ 4.771000e-008 0.400000
+ 5.051000e-008 0.000000
+ 5.331000e-008 0.000000
+ 5.611000e-008 0.400000
+ 5.891000e-008 0.000000
+ 6.171000e-008 0.000000
+ 6.451000e-008 0.400000
+ 6.731000e-008 0.400000
+ 7.011000e-008 0.400000
+ 7.291000e-008 0.000000
+ 7.571000e-008 0.400000
+ 7.851000e-008 0.000000
+ 8.131000e-008 0.000000
+ 8.411000e-008 0.400000
+ 8.691000e-008 0.000000
+ 8.971000e-008 0.400000
+ 9.251000e-008 0.400000
+ 9.531000e-008 0.400000
+ 9.811000e-008 0.000000
+ 1.009100e-007 0.400000
+ 1.037100e-007 0.000000
+ 1.065100e-007 0.000000
+ 1.093100e-007 0.000000
)

VSRCN OutN GND_SRC PWL (
+ 0.000000e+000 0.000000
+ 1.000000e-011 0.000000
+ 1.100000e-010 0.000000
+ 2.910000e-009 0.000000
+ 5.710000e-009 0.400000
+ 8.510000e-009 0.400000
+ 1.131000e-008 0.400000
+ 1.411000e-008 0.400000
+ 1.691000e-008 0.400000
+ 1.971000e-008 0.000000
+ 2.251000e-008 0.400000
+ 2.531000e-008 0.000000
+ 2.811000e-008 0.000000
+ 3.091000e-008 0.400000
+ 3.371000e-008 0.400000
+ 3.651000e-008 0.000000
+ 3.931000e-008 0.000000
+ 4.211000e-008 0.000000
+ 4.491000e-008 0.400000
+ 4.771000e-008 0.000000
+ 5.051000e-008 0.400000
+ 5.331000e-008 0.400000
+ 5.611000e-008 0.000000
+ 5.891000e-008 0.400000
+ 6.171000e-008 0.400000
+ 6.451000e-008 0.000000
+ 6.731000e-008 0.000000
+ 7.011000e-008 0.000000
+ 7.291000e-008 0.400000
+ 7.571000e-008 0.000000
+ 7.851000e-008 0.400000
+ 8.131000e-008 0.400000
+ 8.411000e-008 0.000000
+ 8.691000e-008 0.400000
+ 8.971000e-008 0.000000
+ 9.251000e-008 0.000000
+ 9.531000e-008 0.000000
+ 9.811000e-008 0.400000
+ 1.009100e-007 0.000000
+ 1.037100e-007 0.400000
+ 1.065100e-007 0.400000
+ 1.093100e-007 0.400000
)

.ENDS