*	Trf=30.000 ps,  
*	Min Timestep =3.333 ps,  
*	IN OUT GND 
.SUBCKT GaussLPF 1 2 3
EGAUSS 2 3 FREQ 1 3 
+ 0.00 0.00000000000000e+000 0.00000000000000e+000
+ 10000000.00 -2.52170989451149e-006 -7.20000000000000e-001
+ 20000000.00 -1.00868395801168e-005 -1.44000000000000e+000
+ 30000000.00 -2.26953890543369e-005 -2.16000000000000e+000
+ 40000000.00 -4.03473583187833e-005 -2.88000000000000e+000
+ 50000000.00 -6.30427473733087e-005 -3.60000000000000e+000
+ 60000000.00 -9.07815562168817e-005 -4.32000000000000e+000
+ 70000000.00 -1.23563784851330e-004 -5.04000000000000e+000
+ 80000000.00 -1.61389433275412e-004 -5.76000000000000e+000
+ 90000000.00 -2.04258501488512e-004 -6.48000000000000e+000
+ 100000000.00 -2.52170989492375e-004 -7.20000000000000e+000
+ 110000000.00 -3.05126897285103e-004 -7.92000000000000e+000
+ 120000000.00 -3.63126224868631e-004 -8.64000000000000e+000
+ 130000000.00 -4.26168972241706e-004 -9.36000000000000e+000
+ 140000000.00 -4.94255139404415e-004 -1.00800000000000e+001
+ 150000000.00 -5.67384726357868e-004 -1.08000000000000e+001
+ 160000000.00 -6.45557733099996e-004 -1.15200000000000e+001
+ 170000000.00 -7.28774159632896e-004 -1.22400000000000e+001
+ 180000000.00 -8.17034005954719e-004 -1.29600000000000e+001
+ 190000000.00 -9.10337272066967e-004 -1.36800000000000e+001
+ 200000000.00 -1.00868395796922e-003 -1.44000000000000e+001
+ 210000000.00 -1.11207406366061e-003 -1.51200000000000e+001
+ 220000000.00 -1.22050758914218e-003 -1.58400000000000e+001
+ 230000000.00 -1.33398453441351e-003 -1.65600000000000e+001
+ 240000000.00 -1.45250489947504e-003 -1.72800000000000e+001
+ 250000000.00 -1.57606868432653e-003 -1.80000000000000e+001
+ 260000000.00 -1.70467588896743e-003 -1.87200000000000e+001
+ 270000000.00 -1.83832651339819e-003 -1.94400000000000e+001
+ 280000000.00 -1.97702055761865e-003 -2.01600000000000e+001
+ 290000000.00 -2.12075802162925e-003 -2.08800000000000e+001
+ 300000000.00 -2.26953890542944e-003 -2.16000000000000e+001
+ 310000000.00 -2.42336320901977e-003 -2.23200000000000e+001
+ 320000000.00 -2.58223093240023e-003 -2.30400000000000e+001
+ 330000000.00 -2.74614207557040e-003 -2.37600000000000e+001
+ 340000000.00 -2.91509663852963e-003 -2.44800000000000e+001
+ 350000000.00 -3.08909462127911e-003 -2.52000000000000e+001
+ 360000000.00 -3.26813602381907e-003 -2.59200000000000e+001
+ 370000000.00 -3.45222084614790e-003 -2.66400000000000e+001
+ 380000000.00 -3.64134908826707e-003 -2.73600000000000e+001
+ 390000000.00 -3.83552075017629e-003 -2.80800000000000e+001
+ 400000000.00 -4.03473583187546e-003 -2.88000000000000e+001
+ 410000000.00 -4.23899433336374e-003 -2.95200000000000e+001
+ 420000000.00 -4.44829625464231e-003 -3.02400000000000e+001
+ 430000000.00 -4.66264159571053e-003 -3.09600000000000e+001
+ 440000000.00 -4.88203035656967e-003 -3.16800000000000e+001
+ 450000000.00 -5.10646253721698e-003 -3.24000000000000e+001
+ 460000000.00 -5.33593813765525e-003 -3.31200000000000e+001
+ 470000000.00 -5.57045715788292e-003 -3.38400000000000e+001
+ 480000000.00 -5.81001959790073e-003 -3.45600000000000e+001
+ 490000000.00 -6.05462545770755e-003 -3.52800000000000e+001
+ 500000000.00 -6.30427473730501e-003 -3.60000000000000e+001
+ 510000000.00 -6.55896743669239e-003 -3.67200000000000e+001
+ 520000000.00 -6.81870355586925e-003 -3.74400000000000e+001
+ 530000000.00 -7.08348309483601e-003 -3.81600000000000e+001
+ 540000000.00 -7.35330605359269e-003 -3.88800000000000e+001
+ 550000000.00 -7.62817243213949e-003 -3.96000000000000e+001
+ 560000000.00 -7.90808223047540e-003 -4.03200000000000e+001
+ 570000000.00 -8.19303544860169e-003 -4.10400000000000e+001
+ 580000000.00 -8.48303208651756e-003 -4.17600000000000e+001
+ 590000000.00 -8.77807214422352e-003 -4.24800000000000e+001
+ 600000000.00 -9.07815562171997e-003 -4.32000000000000e+001
+ 610000000.00 -9.38328251900470e-003 -4.39200000000000e+001
+ 620000000.00 -9.69345283608106e-003 -4.46400000000000e+001
+ 630000000.00 -1.00086665729458e-002 -4.53600000000000e+001
+ 640000000.00 -1.03289237296009e-002 -4.60800000000000e+001
+ 650000000.00 -1.06542243060454e-002 -4.68000000000000e+001
+ 660000000.00 -1.09845683022806e-002 -4.75200000000000e+001
+ 670000000.00 -1.13199557183052e-002 -4.82400000000000e+001
+ 680000000.00 -1.16603865541196e-002 -4.89600000000000e+001
+ 690000000.00 -1.20058608097244e-002 -4.96800000000000e+001
+ 700000000.00 -1.23563784851183e-002 -5.04000000000000e+001
+ 710000000.00 -1.27119395803025e-002 -5.11200000000000e+001
+ 720000000.00 -1.30725440952758e-002 -5.18400000000000e+001
+ 730000000.00 -1.34381920300397e-002 -5.25600000000000e+001
+ 740000000.00 -1.38088833845935e-002 -5.32800000000000e+001
+ 750000000.00 -1.41846181589367e-002 -5.40000000000000e+001
+ 760000000.00 -1.45653963530705e-002 -5.47200000000000e+001
+ 770000000.00 -1.49512179669934e-002 -5.54400000000000e+001
+ 780000000.00 -1.53420830007058e-002 -5.61600000000000e+001
+ 790000000.00 -1.57379914542092e-002 -5.68800000000000e+001
+ 800000000.00 -1.61389433275011e-002 -5.76000000000000e+001
+ 810000000.00 -1.65449386205839e-002 -5.83200000000000e+001
+ 820000000.00 -1.69559773334560e-002 -5.90400000000000e+001
+ 830000000.00 -1.73720594661182e-002 -5.97600000000000e+001
+ 840000000.00 -1.77931850185702e-002 -6.04800000000000e+001
+ 850000000.00 -1.82193539908119e-002 -6.12000000000000e+001
+ 860000000.00 -1.86505663828435e-002 -6.19200000000000e+001
+ 870000000.00 -1.90868221946652e-002 -6.26400000000000e+001
+ 880000000.00 -1.95281214262768e-002 -6.33600000000000e+001
+ 890000000.00 -1.99744640776778e-002 -6.40800000000000e+001
+ 900000000.00 -2.04258501488694e-002 -6.48000000000000e+001
+ 910000000.00 -2.08822796398502e-002 -6.55200000000000e+001
+ 920000000.00 -2.13437525506209e-002 -6.62400000000000e+001
+ 930000000.00 -2.18102688811813e-002 -6.69600000000000e+001
+ 940000000.00 -2.22818286315320e-002 -6.76800000000000e+001
+ 950000000.00 -2.27584318016719e-002 -6.84000000000000e+001
+ 960000000.00 -2.32400783916024e-002 -6.91200000000000e+001
+ 970000000.00 -2.37267684013226e-002 -6.98400000000000e+001
+ 980000000.00 -2.42185018308321e-002 -7.05600000000000e+001
+ 990000000.00 -2.47152786801318e-002 -7.12800000000000e+001
+ 1000000000.00 -2.52170989492215e-002 -7.20000000000000e+001
+ 1010000000.00 -2.57239626381008e-002 -7.27200000000000e+001
+ 1020000000.00 -2.62358697467692e-002 -7.34400000000000e+001
+ 1030000000.00 -2.67528202752286e-002 -7.41600000000000e+001
+ 1040000000.00 -2.72748142234774e-002 -7.48800000000000e+001
+ 1050000000.00 -2.78018515915164e-002 -7.56000000000000e+001
+ 1060000000.00 -2.83339323793452e-002 -7.63200000000000e+001
+ 1070000000.00 -2.88710565869634e-002 -7.70400000000000e+001
+ 1080000000.00 -2.94132242143719e-002 -7.77600000000000e+001
+ 1090000000.00 -2.99604352615691e-002 -7.84800000000000e+001
+ 1100000000.00 -3.05126897285580e-002 -7.92000000000000e+001
+ 1110000000.00 -3.10699876153354e-002 -7.99200000000000e+001
+ 1120000000.00 -3.16323289219030e-002 -8.06400000000000e+001
+ 1130000000.00 -3.21997136482607e-002 -8.13600000000000e+001
+ 1140000000.00 -3.27721417944074e-002 -8.20800000000000e+001
+ 1150000000.00 -3.33496133603450e-002 -8.28000000000000e+001
+ 1160000000.00 -3.39321283460719e-002 -8.35200000000000e+001
+ 1170000000.00 -3.45196867515885e-002 -8.42400000000000e+001
+ 1180000000.00 -3.51122885768952e-002 -8.49600000000000e+001
+ 1190000000.00 -3.57099338219918e-002 -8.56800000000000e+001
+ 1200000000.00 -3.63126224868780e-002 -8.64000000000000e+001
+ 1210000000.00 -3.69203545715544e-002 -8.71200000000000e+001
+ 1220000000.00 -3.75331300760204e-002 -8.78400000000000e+001
+ 1230000000.00 -3.81509490002770e-002 -8.85600000000000e+001
+ 1240000000.00 -3.87738113443227e-002 -8.92800000000000e+001
+ 1250000000.00 -3.94017171081582e-002 -9.00000000000000e+001
+ 1260000000.00 -4.00346662917832e-002 -9.07200000000000e+001
+ 1270000000.00 -4.06726588951983e-002 -9.14400000000000e+001
+ 1280000000.00 -4.13156949184043e-002 -9.21600000000000e+001
+ 1290000000.00 -4.19637743613983e-002 -9.28800000000000e+001
+ 1300000000.00 -4.26168972241834e-002 -9.36000000000000e+001
+ 1310000000.00 -4.32750635067578e-002 -9.43200000000000e+001
+ 1320000000.00 -4.39382732091231e-002 -9.50400000000000e+001
+ 1330000000.00 -4.46065263312773e-002 -9.57600000000000e+001
+ 1340000000.00 -4.52798228732218e-002 -9.64800000000000e+001
+ 1350000000.00 -4.59581628349557e-002 -9.72000000000000e+001
+ 1360000000.00 -4.66415462164794e-002 -9.79200000000000e+001
+ 1370000000.00 -4.73299730177931e-002 -9.86400000000000e+001
+ 1380000000.00 -4.80234432388970e-002 -9.93600000000000e+001
+ 1390000000.00 -4.87219568797903e-002 -1.00080000000000e+002
+ 1400000000.00 -4.94255139404729e-002 -1.00800000000000e+002
+ 1410000000.00 -5.01341144209465e-002 -1.01520000000000e+002
+ 1420000000.00 -5.08477583212093e-002 -1.02240000000000e+002
+ 1430000000.00 -5.15664456412619e-002 -1.02960000000000e+002
+ 1440000000.00 -5.22901763811052e-002 -1.03680000000000e+002
+ 1450000000.00 -5.30189505407377e-002 -1.04400000000000e+002
+ 1460000000.00 -5.37527681201593e-002 -1.05120000000000e+002
+ 1470000000.00 -5.44916291193717e-002 -1.05840000000000e+002
+ 1480000000.00 -5.52355335383741e-002 -1.06560000000000e+002
+ 1490000000.00 -5.59844813771657e-002 -1.07280000000000e+002
+ 1500000000.00 -5.67384726357469e-002 -1.08000000000000e+002
+ 1510000000.00 -5.74975073141194e-002 -1.08720000000000e+002
+ 1520000000.00 -5.82615854122806e-002 -1.09440000000000e+002
+ 1530000000.00 -5.90307069302314e-002 -1.10160000000000e+002
+ 1540000000.00 -5.98048718679723e-002 -1.10880000000000e+002
+ 1550000000.00 -6.05840802255034e-002 -1.11600000000000e+002
+ 1560000000.00 -6.13683320028248e-002 -1.12320000000000e+002
+ 1570000000.00 -6.21576271999347e-002 -1.13040000000000e+002
+ 1580000000.00 -6.29519658168354e-002 -1.13760000000000e+002
+ 1590000000.00 -6.37513478535255e-002 -1.14480000000000e+002
+ 1600000000.00 -6.45557733100060e-002 -1.15200000000000e+002
+ 1610000000.00 -6.53652421862764e-002 -1.15920000000000e+002
+ 1620000000.00 -6.61797544823362e-002 -1.16640000000000e+002
+ 1630000000.00 -6.69993101981859e-002 -1.17360000000000e+002
+ 1640000000.00 -6.78239093338250e-002 -1.18080000000000e+002
+ 1650000000.00 -6.86535518892543e-002 -1.18800000000000e+002
+ 1660000000.00 -6.94882378644741e-002 -1.19520000000000e+002
+ 1670000000.00 -7.03279672594826e-002 -1.20240000000000e+002
+ 1680000000.00 -7.11727400742811e-002 -1.20960000000000e+002
+ 1690000000.00 -7.20225563088698e-002 -1.21680000000000e+002
+ 1700000000.00 -7.28774159632487e-002 -1.22400000000000e+002
+ 1710000000.00 -7.37373190374178e-002 -1.23120000000000e+002
+ 1720000000.00 -7.46022655313761e-002 -1.23840000000000e+002
+ 1730000000.00 -7.54722554451238e-002 -1.24560000000000e+002
+ 1740000000.00 -7.63472887786622e-002 -1.25280000000000e+002
+ 1750000000.00 -7.72273655319891e-002 -1.26000000000000e+002
+ 1760000000.00 -7.81124857051072e-002 -1.26720000000000e+002
+ 1770000000.00 -7.90026492980147e-002 -1.27440000000000e+002
+ 1780000000.00 -7.98978563107119e-002 -1.28160000000000e+002
+ 1790000000.00 -8.07981067431991e-002 -1.28880000000000e+002
+ 1800000000.00 -8.17034005954767e-002 -1.29600000000000e+002
+ 1810000000.00 -8.26137378675430e-002 -1.30320000000000e+002
+ 1820000000.00 -8.35291185594000e-002 -1.31040000000000e+002
+ 1830000000.00 -8.44495426710463e-002 -1.31760000000000e+002
+ 1840000000.00 -8.53750102024828e-002 -1.32480000000000e+002
+ 1850000000.00 -8.63055211537087e-002 -1.33200000000000e+002
+ 1860000000.00 -8.72410755247249e-002 -1.33920000000000e+002
+ 1870000000.00 -8.81816733155314e-002 -1.34640000000000e+002
+ 1880000000.00 -8.91273145261268e-002 -1.35360000000000e+002
+ 1890000000.00 -9.00779991565126e-002 -1.36080000000000e+002
+ 1900000000.00 -9.10337272066883e-002 -1.36800000000000e+002
+ 1910000000.00 -9.19944986766532e-002 -1.37520000000000e+002
+ 1920000000.00 -9.29603135664081e-002 -1.38240000000000e+002
+ 1930000000.00 -9.39311718759538e-002 -1.38960000000000e+002
+ 1940000000.00 -9.49070736052889e-002 -1.39680000000000e+002
+ 1950000000.00 -9.58880187544136e-002 -1.40400000000000e+002
+ 1960000000.00 -9.68740073233272e-002 -1.41120000000000e+002
+ 1970000000.00 -9.78650393120319e-002 -1.41840000000000e+002
+ 1980000000.00 -9.88611147205266e-002 -1.42560000000000e+002
+ 1990000000.00 -9.98622335488100e-002 -1.43280000000000e+002
+ 2000000000.00 -1.00868395796885e-001 -1.44000000000000e+002
+ 2010000000.00 -1.01879601464748e-001 -1.44720000000000e+002
+ 2020000000.00 -1.02895850552402e-001 -1.45440000000000e+002
+ 2030000000.00 -1.03917143059845e-001 -1.46160000000000e+002
+ 2040000000.00 -1.04943478987078e-001 -1.46880000000000e+002
+ 2050000000.00 -1.05974858334101e-001 -1.47600000000000e+002
+ 2060000000.00 -1.07011281100914e-001 -1.48320000000000e+002
+ 2070000000.00 -1.08052747287518e-001 -1.49040000000000e+002
+ 2080000000.00 -1.09099256893910e-001 -1.49760000000000e+002
+ 2090000000.00 -1.10150809920092e-001 -1.50480000000000e+002
+ 2100000000.00 -1.11207406366065e-001 -1.51200000000000e+002
+ 2110000000.00 -1.12269046231827e-001 -1.51920000000000e+002
+ 2120000000.00 -1.13335729517379e-001 -1.52640000000000e+002
+ 2130000000.00 -1.14407456222721e-001 -1.53360000000000e+002
+ 2140000000.00 -1.15484226347853e-001 -1.54080000000000e+002
+ 2150000000.00 -1.16566039892775e-001 -1.54800000000000e+002
+ 2160000000.00 -1.17652896857485e-001 -1.55520000000000e+002
+ 2170000000.00 -1.18744797241987e-001 -1.56240000000000e+002
+ 2180000000.00 -1.19841741046278e-001 -1.56960000000000e+002
+ 2190000000.00 -1.20943728270359e-001 -1.57680000000000e+002
+ 2200000000.00 -1.22050758914230e-001 -1.58400000000000e+002
+ 2210000000.00 -1.23162832977891e-001 -1.59120000000000e+002
+ 2220000000.00 -1.24279950461341e-001 -1.59840000000000e+002
+ 2230000000.00 -1.25402111364581e-001 -1.60560000000000e+002
+ 2240000000.00 -1.26529315687612e-001 -1.61280000000000e+002
+ 2250000000.00 -1.27661563430431e-001 -1.62000000000000e+002
+ 2260000000.00 -1.28798854593041e-001 -1.62720000000000e+002
+ 2270000000.00 -1.29941189175441e-001 -1.63440000000000e+002
+ 2280000000.00 -1.31088567177631e-001 -1.64160000000000e+002
+ 2290000000.00 -1.32240988599610e-001 -1.64880000000000e+002
+ 2300000000.00 -1.33398453441380e-001 -1.65600000000000e+002
+ 2310000000.00 -1.34560961702939e-001 -1.66320000000000e+002
+ 2320000000.00 -1.35728513384287e-001 -1.67040000000000e+002
+ 2330000000.00 -1.36901108485427e-001 -1.67760000000000e+002
+ 2340000000.00 -1.38078747006355e-001 -1.68480000000000e+002
+ 2350000000.00 -1.39261428947074e-001 -1.69200000000000e+002
+ 2360000000.00 -1.40449154307582e-001 -1.69920000000000e+002
+ 2370000000.00 -1.41641923087880e-001 -1.70640000000000e+002
+ 2380000000.00 -1.42839735287968e-001 -1.71360000000000e+002
+ 2390000000.00 -1.44042590907846e-001 -1.72080000000000e+002
+ 2400000000.00 -1.45250489947513e-001 -1.72800000000000e+002
+ 2410000000.00 -1.46463432406971e-001 -1.73520000000000e+002
+ 2420000000.00 -1.47681418286218e-001 -1.74240000000000e+002
+ 2430000000.00 -1.48904447585256e-001 -1.74960000000000e+002
+ 2440000000.00 -1.50132520304082e-001 -1.75680000000000e+002
+ 2450000000.00 -1.51365636442700e-001 -1.76400000000000e+002
+ 2460000000.00 -1.52603796001106e-001 -1.77120000000000e+002
+ 2470000000.00 -1.53846998979303e-001 -1.77840000000000e+002
+ 2480000000.00 -1.55095245377289e-001 -1.78560000000000e+002
+ 2490000000.00 -1.56348535195065e-001 -1.79280000000000e+002
+ 2500000000.00 -1.57606868432632e-001 -1.80000000000000e+002
+ 2510000000.00 -1.58870245089988e-001 -1.80720000000000e+002
+ 2520000000.00 -1.60138665167133e-001 -1.81440000000000e+002
+ 2530000000.00 -1.61412128664069e-001 -1.82160000000000e+002
+ 2540000000.00 -1.62690635580795e-001 -1.82880000000000e+002
+ 2550000000.00 -1.63974185917310e-001 -1.83600000000000e+002
+ 2560000000.00 -1.65262779673615e-001 -1.84320000000000e+002
+ 2570000000.00 -1.66556416849710e-001 -1.85040000000000e+002
+ 2580000000.00 -1.67855097445595e-001 -1.85760000000000e+002
+ 2590000000.00 -1.69158821461270e-001 -1.86480000000000e+002
+ 2600000000.00 -1.70467588896735e-001 -1.87200000000000e+002
+ 2610000000.00 -1.71781399751988e-001 -1.87920000000000e+002
+ 2620000000.00 -1.73100254027033e-001 -1.88640000000000e+002
+ 2630000000.00 -1.74424151721867e-001 -1.89360000000000e+002
+ 2640000000.00 -1.75753092836491e-001 -1.90080000000000e+002
+ 2650000000.00 -1.77087077370905e-001 -1.90800000000000e+002
+ 2660000000.00 -1.78426105325108e-001 -1.91520000000000e+002
+ 2670000000.00 -1.79770176699102e-001 -1.92240000000000e+002
+ 2680000000.00 -1.81119291492886e-001 -1.92960000000000e+002
+ 2690000000.00 -1.82473449706459e-001 -1.93680000000000e+002
+ 2700000000.00 -1.83832651339821e-001 -1.94400000000000e+002
+ 2710000000.00 -1.85196896392974e-001 -1.95120000000000e+002
+ 2720000000.00 -1.86566184865918e-001 -1.95840000000000e+002
+ 2730000000.00 -1.87940516758649e-001 -1.96560000000000e+002
+ 2740000000.00 -1.89319892071172e-001 -1.97280000000000e+002
+ 2750000000.00 -1.90704310803484e-001 -1.98000000000000e+002
+ 2760000000.00 -1.92093772955587e-001 -1.98720000000000e+002
+ 2770000000.00 -1.93488278527478e-001 -1.99440000000000e+002
+ 2780000000.00 -1.94887827519160e-001 -2.00160000000000e+002
+ 2790000000.00 -1.96292419930632e-001 -2.00880000000000e+002
+ 2800000000.00 -1.97702055761893e-001 -2.01600000000000e+002
+ 2810000000.00 -1.99116735012945e-001 -2.02320000000000e+002
+ 2820000000.00 -2.00536457683786e-001 -2.03040000000000e+002
+ 2830000000.00 -2.01961223774417e-001 -2.03760000000000e+002
+ 2840000000.00 -2.03391033284838e-001 -2.04480000000000e+002
+ 2850000000.00 -2.04825886215049e-001 -2.05200000000000e+002
+ 2860000000.00 -2.06265782565048e-001 -2.05920000000000e+002
+ 2870000000.00 -2.07710722334839e-001 -2.06640000000000e+002
+ 2880000000.00 -2.09160705524419e-001 -2.07360000000000e+002
+ 2890000000.00 -2.10615732133789e-001 -2.08080000000000e+002
+ 2900000000.00 -2.12075802162950e-001 -2.08800000000000e+002
+ 2910000000.00 -2.13540915611899e-001 -2.09520000000000e+002
+ 2920000000.00 -2.15011072480638e-001 -2.10240000000000e+002
+ 2930000000.00 -2.16486272769168e-001 -2.10960000000000e+002
+ 2940000000.00 -2.17966516477487e-001 -2.11680000000000e+002
+ 2950000000.00 -2.19451803605596e-001 -2.12400000000000e+002
+ 2960000000.00 -2.20942134153495e-001 -2.13120000000000e+002
+ 2970000000.00 -2.22437508121184e-001 -2.13840000000000e+002
+ 2980000000.00 -2.23937925508663e-001 -2.14560000000000e+002
+ 2990000000.00 -2.25443386315931e-001 -2.15280000000000e+002
+ 3000000000.00 -2.26953890542990e-001 -2.16000000000000e+002
+ 3010000000.00 -2.28469438189838e-001 -2.16720000000000e+002
+ 3020000000.00 -2.29990029256476e-001 -2.17440000000000e+002
+ 3030000000.00 -2.31515663742904e-001 -2.18160000000000e+002
+ 3040000000.00 -2.33046341649122e-001 -2.18880000000000e+002
+ 3050000000.00 -2.34582062975129e-001 -2.19600000000000e+002
+ 3060000000.00 -2.36122827720927e-001 -2.20320000000000e+002
+ 3070000000.00 -2.37668635886514e-001 -2.21040000000000e+002
+ 3080000000.00 -2.39219487471891e-001 -2.21760000000000e+002
+ 3090000000.00 -2.40775382477058e-001 -2.22480000000000e+002
+ 3100000000.00 -2.42336320902015e-001 -2.23200000000000e+002
+ 3110000000.00 -2.43902302746761e-001 -2.23920000000000e+002
+ 3120000000.00 -2.45473328011298e-001 -2.24640000000000e+002
+ 3130000000.00 -2.47049396695624e-001 -2.25360000000000e+002
+ 3140000000.00 -2.48630508799740e-001 -2.26080000000000e+002
+ 3150000000.00 -2.50216664323646e-001 -2.26800000000000e+002
+ 3160000000.00 -2.51807863267342e-001 -2.27520000000000e+002
+ 3170000000.00 -2.53404105630828e-001 -2.28240000000000e+002
+ 3180000000.00 -2.55005391414103e-001 -2.28960000000000e+002
+ 3190000000.00 -2.56611720617168e-001 -2.29680000000000e+002
+ 3200000000.00 -2.58223093240024e-001 -2.30400000000000e+002
+ 3210000000.00 -2.59839509282669e-001 -2.31120000000000e+002
+ 3220000000.00 -2.61460968745103e-001 -2.31840000000000e+002
+ 3230000000.00 -2.63087471627328e-001 -2.32560000000000e+002
+ 3240000000.00 -2.64719017929343e-001 -2.33280000000000e+002
+ 3250000000.00 -2.66355607651148e-001 -2.34000000000000e+002
+ 3260000000.00 -2.67997240792742e-001 -2.34720000000000e+002
+ 3270000000.00 -2.69643917354126e-001 -2.35440000000000e+002
+ 3280000000.00 -2.71295637335300e-001 -2.36160000000000e+002
+ 3290000000.00 -2.72952400736264e-001 -2.36880000000000e+002
+ 3300000000.00 -2.74614207557018e-001 -2.37600000000000e+002
+ 3310000000.00 -2.76281057797561e-001 -2.38320000000000e+002
+ 3320000000.00 -2.77952951457895e-001 -2.39040000000000e+002
+ 3330000000.00 -2.79629888538018e-001 -2.39760000000000e+002
+ 3340000000.00 -2.81311869037930e-001 -2.40480000000000e+002
+ 3350000000.00 -2.82998892957634e-001 -2.41200000000000e+002
+ 3360000000.00 -2.84690960297126e-001 -2.41920000000000e+002
+ 3370000000.00 -2.86388071056409e-001 -2.42640000000000e+002
+ 3380000000.00 -2.88090225235482e-001 -2.43360000000000e+002
+ 3390000000.00 -2.89797422834343e-001 -2.44080000000000e+002
+ 3400000000.00 -2.91509663852996e-001 -2.44800000000000e+002
+ 3410000000.00 -2.93226948291438e-001 -2.45520000000000e+002
+ 3420000000.00 -2.94949276149669e-001 -2.46240000000000e+002
+ 3430000000.00 -2.96676647427691e-001 -2.46960000000000e+002
+ 3440000000.00 -2.98409062125503e-001 -2.47680000000000e+002
+ 3450000000.00 -3.00146520243104e-001 -2.48400000000000e+002
+ 3460000000.00 -3.01889021780495e-001 -2.49120000000000e+002
+ 3470000000.00 -3.03636566737676e-001 -2.49840000000000e+002
+ 3480000000.00 -3.05389155114647e-001 -2.50560000000000e+002
+ 3490000000.00 -3.07146786911408e-001 -2.51280000000000e+002
+ 3500000000.00 -3.08909462127959e-001 -2.52000000000000e+002
+ 3510000000.00 -3.10677180764299e-001 -2.52720000000000e+002
+ 3520000000.00 -3.12449942820429e-001 -2.53440000000000e+002
+ 3530000000.00 -3.14227748296348e-001 -2.54160000000000e+002
+ 3540000000.00 -3.16010597192059e-001 -2.54880000000000e+002
+ 3550000000.00 -3.17798489507558e-001 -2.55600000000000e+002
+ 3560000000.00 -3.19591425242848e-001 -2.56320000000000e+002
+ 3570000000.00 -3.21389404397928e-001 -2.57040000000000e+002
+ 3580000000.00 -3.23192426972797e-001 -2.57760000000000e+002
+ 3590000000.00 -3.25000492967456e-001 -2.58480000000000e+002
+ 3600000000.00 -3.26813602381905e-001 -2.59200000000000e+002
+ 3610000000.00 -3.28631755216144e-001 -2.59920000000000e+002
+ 3620000000.00 -3.30454951470173e-001 -2.60640000000000e+002
+ 3630000000.00 -3.32283191143991e-001 -2.61360000000000e+002
+ 3640000000.00 -3.34116474237599e-001 -2.62080000000000e+002
+ 3650000000.00 -3.35954800750998e-001 -2.62800000000000e+002
+ 3660000000.00 -3.37798170684186e-001 -2.63520000000000e+002
+ 3670000000.00 -3.39646584037163e-001 -2.64240000000000e+002
+ 3680000000.00 -3.41500040809931e-001 -2.64960000000000e+002
+ 3690000000.00 -3.43358541002489e-001 -2.65680000000000e+002
+ 3700000000.00 -3.45222084614837e-001 -2.66400000000000e+002
+ 3710000000.00 -3.47090671646973e-001 -2.67120000000000e+002
+ 3720000000.00 -3.48964302098901e-001 -2.67840000000000e+002
+ 3730000000.00 -3.50842975970618e-001 -2.68560000000000e+002
+ 3740000000.00 -3.52726693262125e-001 -2.69280000000000e+002
+ 3750000000.00 -3.54615453973421e-001 -2.70000000000000e+002
+ 3760000000.00 -3.56509258104507e-001 -2.70720000000000e+002
+ 3770000000.00 -3.58408105655384e-001 -2.71440000000000e+002
+ 3780000000.00 -3.60311996626051e-001 -2.72160000000000e+002
+ 3790000000.00 -3.62220931016507e-001 -2.72880000000000e+002
+ 3800000000.00 -3.64134908826752e-001 -2.73600000000000e+002
+ 3810000000.00 -3.66053930056788e-001 -2.74320000000000e+002
+ 3820000000.00 -3.67977994706614e-001 -2.75040000000000e+002
+ 3830000000.00 -3.69907102776229e-001 -2.75760000000000e+002
+ 3840000000.00 -3.71841254265634e-001 -2.76480000000000e+002
+ 3850000000.00 -3.73780449174829e-001 -2.77200000000000e+002
+ 3860000000.00 -3.75724687503814e-001 -2.77920000000000e+002
+ 3870000000.00 -3.77673969252589e-001 -2.78640000000000e+002
+ 3880000000.00 -3.79628294421154e-001 -2.79360000000000e+002
+ 3890000000.00 -3.81587663009508e-001 -2.80080000000000e+002
+ 3900000000.00 -3.83552075017652e-001 -2.80800000000000e+002
+ 3910000000.00 -3.85521530445587e-001 -2.81520000000000e+002
+ 3920000000.00 -3.87496029293311e-001 -2.82240000000000e+002
+ 3930000000.00 -3.89475571560825e-001 -2.82960000000000e+002
+ 3940000000.00 -3.91460157248129e-001 -2.83680000000000e+002
+ 3950000000.00 -3.93449786355222e-001 -2.84400000000000e+002
+ 3960000000.00 -3.95444458882105e-001 -2.85120000000000e+002
+ 3970000000.00 -3.97444174828779e-001 -2.85840000000000e+002
+ 3980000000.00 -3.99448934195241e-001 -2.86560000000000e+002
+ 3990000000.00 -4.01458736981494e-001 -2.87280000000000e+002
+ 4000000000.00 -4.03473583187538e-001 -2.88000000000000e+002
+ 4010000000.00 -4.05493472813369e-001 -2.88720000000000e+002
+ 4020000000.00 -4.07518405858992e-001 -2.89440000000000e+002
+ 4030000000.00 -4.09548382324404e-001 -2.90160000000000e+002
+ 4040000000.00 -4.11583402209607e-001 -2.90880000000000e+002
+ 4050000000.00 -4.13623465514599e-001 -2.91600000000000e+002
+ 4060000000.00 -4.15668572239380e-001 -2.92320000000000e+002
+ 4070000000.00 -4.17718722383952e-001 -2.93040000000000e+002
+ 4080000000.00 -4.19773915948313e-001 -2.93760000000000e+002
+ 4090000000.00 -4.21834152932465e-001 -2.94480000000000e+002
+ 4100000000.00 -4.23899433336406e-001 -2.95200000000000e+002
+ 4110000000.00 -4.25969757160138e-001 -2.95920000000000e+002
+ 4120000000.00 -4.28045124403658e-001 -2.96640000000000e+002
+ 4130000000.00 -4.30125535066969e-001 -2.97360000000000e+002
+ 4140000000.00 -4.32210989150070e-001 -2.98080000000000e+002
+ 4150000000.00 -4.34301486652959e-001 -2.98800000000000e+002
+ 4160000000.00 -4.36397027575640e-001 -2.99520000000000e+002
+ 4170000000.00 -4.38497611918110e-001 -3.00240000000000e+002
+ 4180000000.00 -4.40603239680370e-001 -3.00960000000000e+002
+ 4190000000.00 -4.42713910862421e-001 -3.01680000000000e+002
+ 4200000000.00 -4.44829625464260e-001 -3.02400000000000e+002
+ 4210000000.00 -4.46950383485889e-001 -3.03120000000000e+002
+ 4220000000.00 -4.49076184927309e-001 -3.03840000000000e+002
+ 4230000000.00 -4.51207029788518e-001 -3.04560000000000e+002
+ 4240000000.00 -4.53342918069516e-001 -3.05280000000000e+002
+ 4250000000.00 -4.55483849770306e-001 -3.06000000000000e+002
+ 4260000000.00 -4.57629824890885e-001 -3.06720000000000e+002
+ 4270000000.00 -4.59780843431253e-001 -3.07440000000000e+002
+ 4280000000.00 -4.61936905391411e-001 -3.08160000000000e+002
+ 4290000000.00 -4.64098010771359e-001 -3.08880000000000e+002
+ 4300000000.00 -4.66264159571098e-001 -3.09600000000000e+002
+ 4310000000.00 -4.68435351790625e-001 -3.10320000000000e+002
+ 4320000000.00 -4.70611587429943e-001 -3.11040000000000e+002
+ 4330000000.00 -4.72792866489051e-001 -3.11760000000000e+002
+ 4340000000.00 -4.74979188967948e-001 -3.12480000000000e+002
+ 4350000000.00 -4.77170554866635e-001 -3.13200000000000e+002
+ 4360000000.00 -4.79366964185113e-001 -3.13920000000000e+002
+ 4370000000.00 -4.81568416923379e-001 -3.14640000000000e+002
+ 4380000000.00 -4.83774913081436e-001 -3.15360000000000e+002
+ 4390000000.00 -4.85986452659283e-001 -3.16080000000000e+002
+ 4400000000.00 -4.88203035656920e-001 -3.16800000000000e+002
+ 4410000000.00 -4.90424662074346e-001 -3.17520000000000e+002
+ 4420000000.00 -4.92651331911563e-001 -3.18240000000000e+002
+ 4430000000.00 -4.94883045168569e-001 -3.18960000000000e+002
+ 4440000000.00 -4.97119801845364e-001 -3.19680000000000e+002
+ 4450000000.00 -4.99361601941950e-001 -3.20400000000000e+002
+ 4460000000.00 -5.01608445458326e-001 -3.21120000000000e+002
+ 4470000000.00 -5.03860332394491e-001 -3.21840000000000e+002
+ 4480000000.00 -5.06117262750447e-001 -3.22560000000000e+002
+ 4490000000.00 -5.08379236526192e-001 -3.23280000000000e+002
+ 4500000000.00 -5.10646253721727e-001 -3.24000000000000e+002
+ 4510000000.00 -5.12918314337052e-001 -3.24720000000000e+002
+ 4520000000.00 -5.15195418372167e-001 -3.25440000000000e+002
+ 4530000000.00 -5.17477565827071e-001 -3.26160000000000e+002
+ 4540000000.00 -5.19764756701765e-001 -3.26880000000000e+002
+ 4550000000.00 -5.22056990996250e-001 -3.27600000000000e+002
+ 4560000000.00 -5.24354268710523e-001 -3.28320000000000e+002
+ 4570000000.00 -5.26656589844587e-001 -3.29040000000000e+002
+ 4580000000.00 -5.28963954398441e-001 -3.29760000000000e+002
+ 4590000000.00 -5.31276362372084e-001 -3.30480000000000e+002
+ 4600000000.00 -5.33593813765518e-001 -3.31200000000000e+002
+ 4610000000.00 -5.35916308578741e-001 -3.31920000000000e+002
+ 4620000000.00 -5.38243846811754e-001 -3.32640000000000e+002
+ 4630000000.00 -5.40576428464557e-001 -3.33360000000000e+002
+ 4640000000.00 -5.42914053537150e-001 -3.34080000000000e+002
+ 4650000000.00 -5.45256722029533e-001 -3.34800000000000e+002
+ 4660000000.00 -5.47604433941705e-001 -3.35520000000000e+002
+ 4670000000.00 -5.49957189273667e-001 -3.36240000000000e+002
+ 4680000000.00 -5.52314988025420e-001 -3.36960000000000e+002
+ 4690000000.00 -5.54677830196961e-001 -3.37680000000000e+002
+ 4700000000.00 -5.57045715788293e-001 -3.38400000000000e+002
+ 4710000000.00 -5.59418644799415e-001 -3.39120000000000e+002
+ 4720000000.00 -5.61796617230327e-001 -3.39840000000000e+002
+ 4730000000.00 -5.64179633081029e-001 -3.40560000000000e+002
+ 4740000000.00 -5.66567692351519e-001 -3.41280000000000e+002
+ 4750000000.00 -5.68960795041801e-001 -3.42000000000000e+002