.SUBCKT impulse_src Out Gnd_Src
Vsrc Out Gnd_Src PWL (
+ 0.000000e+000 0.0000000000000000e+000
+ 7.000000e-015 0.0000000000000000e+000
+ 2.500000e-014 0.0000000000000000e+000
+ 8.500000e-014 0.0000000000000000e+000
+ 2.840000e-013 0.0000000000000000e+000
+ 8.490000e-013 9.9999999947364415e-008
+ 9.980000e-013 9.9999999947364415e-008
+ 1.002000e-012 9.9999999947364415e-008
+ 1.013000e-012 9.9999999947364415e-008
+ 1.044000e-012 9.9999999947364415e-008
+ 1.076000e-012 9.9999999947364415e-008
+ 1.144000e-012 9.9999999947364415e-008
+ 1.371000e-012 9.9999999947364415e-008
+ 2.093000e-012 1.9999999995023998e-007
+ 3.837000e-012 2.9999999995311555e-007
+ 6.597000e-012 5.9999999996174225e-007
+ 1.159600e-011 1.0999999999761201e-006
+ 1.659500e-011 1.5999999999904979e-006
+ 2.159700e-011 2.0999999999493646e-006
+ 2.659600e-011 2.5999999999637424e-006
+ 3.159400e-011 3.1999999999809958e-006
+ 3.659700e-011 3.6999999999953737e-006
+ 4.131100e-011 4.0999999999513648e-006
+ 4.549600e-011 4.5999999999657426e-006
+ 4.985500e-011 4.9999999999772449e-006
+ 5.485400e-011 5.5999999999944983e-006
+ 5.985300e-011 6.0999999999533649e-006
+ 6.485500e-011 6.5999999999677428e-006
+ 6.985300e-011 7.0999999999821206e-006
+ 7.485600e-011 7.5999999999964984e-006
+ 7.985400e-011 8.0999999999553651e-006
+ 8.485300e-011 8.5999999999697430e-006
+ 8.879700e-011 8.9999999999812452e-006
+ 9.179900e-011 9.2999999999898719e-006
+ 9.561100e-011 9.7000000000013742e-006
+ 1.006090e-010 1.0199999999960241e-005
+ 1.056120e-010 1.0799999999977494e-005
+ 1.106100e-010 1.1299999999991872e-005
+ 1.156090e-010 1.1699999999947863e-005
+ 1.206110e-010 1.2199999999962241e-005
+ 1.249990e-010 1.2699999999976619e-005
+ 1.250060e-010 1.2699999999976619e-005
+ 1.250240e-010 1.2699999999976619e-005
+ 1.250870e-010 1.2699999999976619e-005
+ 1.252830e-010 1.2699999999976619e-005
+ 1.257480e-010 1.2699999999976619e-005
+ 1.260010e-010 1.2699999999976619e-005
+ 1.260040e-010 1.2699999999976619e-005
+ 1.260180e-010 1.2699999999976619e-005
+ 1.260680e-010 1.2799999999979494e-005
+ 1.261360e-010 1.2799999999979494e-005
+ 1.262850e-010 1.2799999999979494e-005
+ 1.267680e-010 1.2799999999979494e-005
+ 1.282710e-010 1.2999999999985246e-005
+ 1.303920e-010 1.3199999999990997e-005
+ 1.340260e-010 1.3600000000002499e-005
+ 1.390280e-010 1.4099999999961366e-005
+ 1.440270e-010 1.4599999999975743e-005
+ 1.490260e-010 1.4999999999987246e-005
+ 1.540280e-010 1.5500000000001624e-005
+ 1.590270e-010 1.6099999999963366e-005
+ 1.640290e-010 1.6599999999977744e-005
+ 1.684770e-010 1.6999999999989246e-005
+ 1.725200e-010 1.7400000000000748e-005
+ 1.764460e-010 1.7799999999956739e-005
+ 1.814440e-010 1.8299999999971117e-005
+ 1.864460e-010 1.8799999999985495e-005
+ 1.914450e-010 1.9299999999999873e-005
+ 1.964440e-010 1.9899999999961615e-005
+ 2.014460e-010 2.0399999999975993e-005
+ 2.064450e-010 2.0899999999990371e-005
+ 2.114470e-010 2.1399999999949237e-005
+ 2.150960e-010 2.1699999999957864e-005
+ 2.180550e-010 2.1999999999966491e-005
+ 2.215330e-010 2.2399999999977993e-005
+ 2.265350e-010 2.2899999999992371e-005
+ 2.315340e-010 2.3399999999951238e-005
+ 2.365330e-010 2.3899999999965615e-005
+ 2.415350e-010 2.4399999999979993e-005
+ 2.465330e-010 2.4899999999994371e-005
+ 2.515360e-010 2.5399999999953238e-005
+ 2.565340e-010 2.5899999999967616e-005
+ 2.612170e-010 2.6299999999979118e-005
+ 2.657320e-010 2.6799999999993496e-005
+ 2.705640e-010 2.7299999999952362e-005
+ 2.755660e-010 2.7699999999963865e-005
+ 2.805650e-010 2.8199999999978242e-005
+ 2.855670e-010 2.8799999999995496e-005
+ 2.905660e-010 2.9199999999951487e-005
+ 2.955640e-010 2.9799999999968740e-005
+ 3.005670e-010 3.0299999999983118e-005
+ 3.055650e-010 3.0799999999997496e-005
+ 3.105640e-010 3.1299999999956363e-005
+ 3.155660e-010 3.1799999999970741e-005
+ 3.205650e-010 3.2299999999985118e-005
+ 3.255670e-010 3.2799999999999496e-005
+ 3.305660e-010 3.3199999999955487e-005
+ 3.355640e-010 3.3699999999969865e-005
+ 3.405670e-010 3.4199999999984243e-005
+ 3.455650e-010 3.4699999999998621e-005
+ 3.505640e-010 3.5199999999957488e-005
+ 3.555660e-010 3.5699999999971865e-005
+ 3.605650e-010 3.6199999999986243e-005
+ 3.655670e-010 3.6700000000000621e-005
+ 3.705660e-010 3.7199999999959488e-005
+ 3.755640e-010 3.7699999999973866e-005
+ 3.781120e-010 3.7999999999982492e-005
+ 3.831100e-010 3.8399999999993994e-005
+ 3.881130e-010 3.8899999999952861e-005
+ 3.931110e-010 3.9499999999970115e-005
+ 3.981100e-010 3.9999999999984492e-005
+ 4.031120e-010 4.0399999999995995e-005
+ 4.081110e-010 4.0899999999954861e-005
+ 4.131100e-010 4.1399999999969239e-005
+ 4.181120e-010 4.1899999999983617e-005
+ 4.231100e-010 4.2399999999997995e-005
+ 4.281130e-010 4.2899999999956862e-005
+ 4.331110e-010 4.3399999999971239e-005
+ 4.381100e-010 4.3799999999982742e-005
+ 4.431120e-010 4.4299999999997119e-005
+ 4.481110e-010 4.4799999999955986e-005
+ 4.531100e-010 4.5299999999970364e-005
+ 4.581120e-010 4.5799999999984742e-005
+ 4.631100e-010 4.6299999999999120e-005
+ 4.681130e-010 4.6799999999957986e-005
+ 4.731110e-010 4.7299999999972364e-005
+ 4.781100e-010 4.7699999999983866e-005
+ 4.831120e-010 4.8199999999998244e-005
+ 4.881110e-010 4.8699999999957111e-005
+ 4.931100e-010 4.9199999999971489e-005
+ 4.981120e-010 4.9699999999985867e-005
+ 5.031100e-010 5.0200000000000244e-005
+ 5.081130e-010 5.0699999999959111e-005
+ 5.131110e-010 5.1199999999973489e-005
+ 5.181100e-010 5.1699999999987867e-005
+ 5.231120e-010 5.2099999999999369e-005
+ 5.281110e-010 5.2599999999958236e-005
+ 5.331100e-010 5.3099999999972614e-005
+ 5.381120e-010 5.3599999999986991e-005
+ 5.431100e-010 5.4100000000001369e-005
+ 5.481130e-010 5.4599999999960236e-005
+ 5.531110e-010 5.5099999999974614e-005
+ 5.581100e-010 5.5599999999988992e-005
+ 5.631120e-010 5.6099999999947858e-005
+ 5.681110e-010 5.6599999999962236e-005
+ 5.731100e-010 5.7099999999976614e-005
+ 5.781120e-010 5.7599999999990992e-005
+ 5.831100e-010 5.8000000000002494e-005
+ 5.881130e-010 5.8599999999964236e-005
+ 5.931110e-010 5.8999999999975739e-005
+ 5.981100e-010 5.9499999999990116e-005
+ 6.031120e-010 5.9999999999948983e-005
+ 6.081110e-010 6.0499999999963361e-005
+ 6.131100e-010 6.0999999999977739e-005
+ 6.181120e-010 6.1399999999989241e-005
+ 6.231100e-010 6.1899999999948108e-005
+ 6.281130e-010 6.2399999999962485e-005
+ 6.331110e-010 6.2899999999976863e-005
+ 6.355980e-010 6.3099999999982614e-005
+ 6.356270e-010 6.3099999999982614e-005
+ 6.357230e-010 6.3199999999985490e-005
+ 6.360280e-010 6.3199999999985490e-005
+ 6.370120e-010 6.3299999999988366e-005
+ 6.401600e-010 6.3599999999996992e-005
+ 6.451590e-010 6.4099999999955859e-005
+ 6.501570e-010 6.4599999999970237e-005
+ 6.551590e-010 6.5099999999984615e-005
+ 6.601580e-010 6.5599999999998992e-005
+ 6.651570e-010 6.6099999999957859e-005
+ 6.701590e-010 6.6599999999972237e-005
+ 6.751580e-010 6.6999999999983739e-005
+ 6.801600e-010 6.7499999999998117e-005
+ 6.851590e-010 6.7999999999956984e-005
+ 6.901570e-010 6.8399999999968486e-005
+ 6.951600e-010 6.8899999999982864e-005
+ 7.001580e-010 6.9399999999997242e-005
+ 7.051570e-010 6.9899999999956108e-005
+ 7.101590e-010 7.0299999999967611e-005
+ 7.151580e-010 7.0799999999981988e-005
+ 7.201600e-010 7.1199999999993491e-005
+ 7.251590e-010 7.1699999999952357e-005
+ 7.277060e-010 7.1999999999960984e-005
+ 7.327050e-010 7.2399999999972486e-005
+ 7.377030e-010 7.2899999999986864e-005
+ 7.427050e-010 7.3400000000001242e-005
+ 7.477040e-010 7.3899999999960109e-005
+ 7.527030e-010 7.4399999999974487e-005
+ 7.577050e-010 7.4899999999988864e-005
+ 7.627040e-010 7.5399999999947731e-005
+ 7.677060e-010 7.5799999999959233e-005
+ 7.702500e-010 7.6099999999967860e-005
+ 7.752520e-010 7.6599999999982238e-005
+ 7.802510e-010 7.7099999999996616e-005
+ 7.852490e-010 7.7499999999952607e-005
+ 7.902510e-010 7.7999999999966985e-005
+ 7.952500e-010 7.8499999999981362e-005
+ 8.002490e-010 7.8899999999992865e-005
+ 8.052510e-010 7.9399999999951731e-005
+ 8.102500e-010 7.9899999999966109e-005
+ 8.152520e-010 8.0299999999977612e-005
+ 8.202510e-010 8.0799999999991989e-005
+ 8.252490e-010 8.1299999999950856e-005
+ 8.302510e-010 8.1799999999965234e-005
+ 8.352500e-010 8.2199999999976736e-005
+ 8.402490e-010 8.2699999999991114e-005
+ 8.452510e-010 8.3199999999949981e-005
+ 8.502500e-010 8.3699999999964358e-005
+ 8.552520e-010 8.4199999999978736e-005
+ 8.602510e-010 8.4599999999990239e-005
+ 8.652490e-010 8.5099999999949105e-005
+ 8.702510e-010 8.5599999999963483e-005
+ 8.752500e-010 8.6099999999977861e-005
+ 8.802490e-010 8.6499999999989363e-005
+ 8.852510e-010 8.6999999999948230e-005
+ 8.902500e-010 8.7499999999962608e-005
+ 8.952520e-010 8.7899999999974110e-005
+ 9.002510e-010 8.8399999999988488e-005
+ 9.052490e-010 8.8899999999947354e-005
+ 9.102510e-010 8.9299999999958857e-005
+ 9.152500e-010 8.9799999999973235e-005
+ 9.202490e-010 9.0299999999987612e-005
+ 9.252510e-010 9.0699999999999115e-005
+ 9.302500e-010 9.1199999999957981e-005
+ 9.352520e-010 9.1699999999972359e-005
+ 9.402510e-010 9.2099999999983861e-005
+ 9.452490e-010 9.2599999999998239e-005
+ 9.502510e-010 9.3099999999957106e-005
+ 9.552500e-010 9.3599999999971484e-005
+ 9.602490e-010 9.4099999999985862e-005
+ 9.652510e-010 9.4600000000000239e-005
+ 9.702500e-010 9.4999999999956231e-005
+ 9.752520e-010 9.5499999999970608e-005
+ 9.802510e-010 9.5999999999984986e-005
+ 9.852490e-010 9.6399999999996488e-005
+ 9.902510e-010 9.6899999999955355e-005
+ 9.952500e-010 9.7399999999969733e-005
+ 1.000249e-009 9.7799999999981235e-005
+ 1.005251e-009 9.8299999999995613e-005
+ 1.010250e-009 9.8799999999954480e-005
+ 1.015252e-009 9.9199999999965982e-005
+ 1.020251e-009 9.9699999999980360e-005
+ 1.025249e-009 1.0009999999999186e-004
+ 1.030251e-009 1.0059999999995073e-004
+ 1.035250e-009 1.0109999999996511e-004
+ 1.040249e-009 1.0149999999997661e-004
+ 1.045251e-009 1.0199999999999099e-004
+ 1.050250e-009 1.0240000000000249e-004
+ 1.055252e-009 1.0289999999996136e-004
+ 1.060251e-009 1.0329999999997286e-004
+ 1.065249e-009 1.0379999999998724e-004
+ 1.070251e-009 1.0430000000000161e-004
+ 1.075250e-009 1.0469999999995760e-004
+ 1.080249e-009 1.0519999999997198e-004
+ 1.085251e-009 1.0569999999998636e-004
+ 1.090250e-009 1.0620000000000074e-004
+ 1.095252e-009 1.0669999999995960e-004
+ 1.100251e-009 1.0709999999997111e-004
+ 1.105249e-009 1.0759999999998549e-004
+ 1.110251e-009 1.0809999999999986e-004
+ 1.115250e-009 1.0849999999995585e-004
+ 1.120249e-009 1.0889999999996736e-004
+ 1.125251e-009 1.0939999999998173e-004
+ 1.130250e-009 1.0979999999999324e-004
+ 1.135252e-009 1.1029999999995210e-004
+ 1.140251e-009 1.1069999999996361e-004
+ 1.145192e-009 1.1119999999997798e-004
+ 1.145224e-009 1.1119999999997798e-004
+ 1.145320e-009 1.1119999999997798e-004
+ 1.145626e-009 1.1119999999997798e-004
+ 1.146610e-009 1.1129999999998086e-004
+ 1.149754e-009 1.1159999999998949e-004
+ 1.154756e-009 1.1209999999994835e-004
+ 1.159755e-009 1.1259999999996273e-004
+ 1.164757e-009 1.1299999999997423e-004
+ 1.169756e-009 1.1349999999998861e-004
+ 1.174755e-009 1.1399999999994748e-004
+ 1.179757e-009 1.1439999999995898e-004
+ 1.184755e-009 1.1489999999997336e-004
+ 1.189754e-009 1.1529999999998486e-004
+ 1.194756e-009 1.1579999999999924e-004
+ 1.199755e-009 1.1629999999995810e-004
+ 1.204757e-009 1.1669999999996961e-004
+ 1.209756e-009 1.1709999999998111e-004
+ 1.214755e-009 1.1759999999999549e-004
+ 1.219757e-009 1.1799999999995148e-004
+ 1.224755e-009 1.1849999999996585e-004
+ 1.229754e-009 1.1889999999997736e-004
+ 1.234756e-009 1.1939999999999173e-004
+ 1.239755e-009 1.1979999999994773e-004
+ 1.244757e-009 1.2019999999995923e-004
+ 1.249756e-009 1.2069999999997361e-004
+ 1.254755e-009 1.2109999999998511e-004
+ 1.259757e-009 1.2159999999999949e-004
+ 1.264755e-009 1.2199999999995548e-004
+ 1.269754e-009 1.2239999999996698e-004
+ 1.274756e-009 1.2289999999998136e-004
+ 1.279755e-009 1.2329999999999286e-004
+ 1.284757e-009 1.2379999999995173e-004
+ 1.289756e-009 1.2419999999996323e-004
+ 1.294755e-009 1.2469999999997761e-004
+ 1.299757e-009 1.2519999999999198e-004
+ 1.304755e-009 1.2559999999994798e-004
+ 1.309754e-009 1.2609999999996235e-004
+ 1.314756e-009 1.2649999999997386e-004
+ 1.319755e-009 1.2699999999998823e-004
+ 1.324757e-009 1.2750000000000261e-004
+ 1.327301e-009 1.2769999999995285e-004
+ 1.332303e-009 1.2809999999996435e-004
+ 1.337302e-009 1.2859999999997873e-004
+ 1.342301e-009 1.2899999999999023e-004
+ 1.347303e-009 1.2949999999994910e-004
+ 1.352301e-009 1.2989999999996060e-004
+ 1.357300e-009 1.3029999999997210e-004
+ 1.362302e-009 1.3079999999998648e-004
+ 1.367301e-009 1.3119999999999798e-004
+ 1.372303e-009 1.3169999999995685e-004
+ 1.377302e-009 1.3219999999997123e-004
+ 1.382301e-009 1.3259999999998273e-004
+ 1.387303e-009 1.3309999999999711e-004
+ 1.392301e-009 1.3359999999995598e-004
+ 1.397300e-009 1.3409999999997035e-004
+ 1.402302e-009 1.3469999999998761e-004
+ 1.407301e-009 1.3549999999995510e-004
+ 1.412303e-009 1.3639999999998098e-004
+ 1.417302e-009 1.3749999999995710e-004
+ 1.422301e-009 1.3900000000000023e-004
+ 1.427303e-009 1.4089999999999936e-004
+ 1.432301e-009 1.4299999999994872e-004
+ 1.437300e-009 1.4429999999998611e-004
+ 1.442302e-009 1.4349999999996310e-004
+ 1.447301e-009 1.3869999999999161e-004
+ 1.449848e-009 1.3409999999997035e-004
+ 1.454847e-009 1.1979999999994773e-004
+ 1.459849e-009 1.0209999999999386e-004
+ 1.464848e-009 9.2599999999998239e-005
+ 1.469847e-009 1.1409999999995035e-004
+ 1.474849e-009 2.0879999999995347e-004
+ 1.479847e-009 4.5499999999998320e-004
+ 1.484846e-009 9.8909999999996501e-004
+ 1.489848e-009 1.9658999999999649e-003
+ 1.494847e-009 3.6087999999999676e-003
+ 1.499849e-009 6.2795999999999963e-003
+ 1.504848e-009 1.0469499999999965e-002
+ 1.509847e-009 1.6710899999999973e-002
+ 1.514849e-009 2.5439499999999948e-002
+ 1.519847e-009 3.6992999999999998e-002
+ 1.524846e-009 5.1628699999999972e-002
+ 1.529848e-009 6.9502299999999961e-002
+ 1.534847e-009 9.0653299999999992e-002
+ 1.539849e-009 1.1499539999999997e-001
+ 1.544848e-009 1.4231509999999997e-001
+ 1.549847e-009 1.7227069999999997e-001
+ 1.554849e-009 2.0438059999999997e-001
+ 1.559847e-009 2.3801959999999997e-001
+ 1.564846e-009 2.7258701999999996e-001
+ 1.569848e-009 3.0755314000000000e-001
+ 1.574847e-009 3.4229932999999996e-001
+ 1.579849e-009 3.7624394200000000e-001
+ 1.584848e-009 4.0892052999999995e-001
+ 1.589847e-009 4.3989772999999999e-001
+ 1.594849e-009 4.6880288999999997e-001
+ 1.599847e-009 4.9530520000000000e-001
+ 1.604846e-009 5.1909600000000000e-001
+ 1.609848e-009 5.3993009999999997e-001
+ 1.614847e-009 5.5766539999999998e-001
+ 1.619849e-009 5.7212350000000001e-001
+ 1.624848e-009 5.8325559999999999e-001
+ 1.629847e-009 5.9114440000000001e-001
+ 1.634849e-009 5.9569260000000002e-001
+ 1.639847e-009 5.9669569999999994e-001
+ 1.644846e-009 5.9394279999999999e-001
+ 1.649848e-009 5.8722459999999999e-001
+ 1.654790e-009 5.7652189999999992e-001
+ 1.654822e-009 5.7644459999999997e-001
+ 1.654918e-009 5.7619599999999993e-001
+ 1.655224e-009 5.7539399999999996e-001
+ 1.656208e-009 5.7275339999999997e-001
+ 1.658307e-009 5.6662899999999994e-001
+ 1.663306e-009 5.4902649999999997e-001
+ 1.668308e-009 5.2741959999999999e-001
+ 1.673307e-009 5.0232349999999992e-001
+ 1.678309e-009 4.7422149999999996e-001
+ 1.683308e-009 4.4369976000000000e-001
+ 1.685852e-009 4.2748354999999999e-001
+ 1.690854e-009 3.9468230999999998e-001
+ 1.695852e-009 3.6103019300000000e-001
+ 1.700855e-009 3.2728265999999995e-001
+ 1.705853e-009 2.9407576999999996e-001
+ 1.710852e-009 2.6209109999999997e-001
+ 1.715854e-009 2.3185399999999998e-001
+ 1.720853e-009 2.0374229999999999e-001
+ 1.725852e-009 1.7802399999999999e-001
+ 1.730854e-009 1.5485759999999998e-001
+ 1.735852e-009 1.3431759999999998e-001
+ 1.740855e-009 1.1641389999999996e-001
+ 1.745853e-009 1.0111070000000000e-001
+ 1.748401e-009 9.4303599999999987e-002
+ 1.753399e-009 8.2770699999999975e-002
+ 1.758398e-009 7.3471899999999979e-002
+ 1.763400e-009 6.6146099999999985e-002
+ 1.768399e-009 6.0516999999999987e-002
+ 1.773397e-009 5.6290999999999980e-002
+ 1.778400e-009 5.3166199999999997e-002
+ 1.780943e-009 5.1912999999999987e-002
+ 1.785946e-009 4.9958000000000002e-002
+ 1.790944e-009 4.8517499999999991e-002
+ 1.795947e-009 4.7373599999999960e-002
+ 1.800945e-009 4.6364299999999969e-002
+ 1.805944e-009 4.5363099999999990e-002
+ 1.810946e-009 4.4294099999999947e-002
+ 1.815945e-009 4.3110499999999996e-002
+ 1.820943e-009 4.1796799999999967e-002
+ 1.825946e-009 4.0391299999999963e-002
+ 1.828489e-009 3.9658599999999988e-002
+ 1.833492e-009 3.8144399999999967e-002
+ 1.838490e-009 3.6536199999999963e-002
+ 1.843489e-009 3.4878099999999967e-002
+ 1.848491e-009 3.3194599999999963e-002
+ 1.853490e-009 3.1509699999999974e-002
+ 1.858492e-009 2.9847899999999983e-002
+ 1.863491e-009 2.8216099999999966e-002
+ 1.866038e-009 2.7405999999999986e-002
+ 1.871037e-009 2.5858799999999960e-002
+ 1.876035e-009 2.4340899999999999e-002
+ 1.881038e-009 2.2812399999999955e-002
+ 1.886036e-009 2.1235599999999966e-002
+ 1.891035e-009 1.9587199999999971e-002
+ 1.896037e-009 1.7869599999999985e-002
+ 1.901036e-009 1.6122499999999984e-002
+ 1.903583e-009 1.5233399999999953e-002
+ 1.908582e-009 1.3479299999999972e-002
+ 1.913580e-009 1.1788799999999988e-002
+ 1.918583e-009 1.0257299999999969e-002
+ 1.923581e-009 8.9423999999999615e-003
+ 1.928584e-009 7.8904999999999670e-003
+ 1.933582e-009 7.1305999999999869e-003
+ 1.938581e-009 6.6562000000000010e-003
+ 1.943583e-009 6.4578999999999609e-003
+ 1.948582e-009 6.5155999999999548e-003
+ 1.953580e-009 6.7936999999999581e-003
+ 1.956128e-009 7.0076999999999501e-003
+ 1.961126e-009 7.5605999999999729e-003
+ 1.966129e-009 8.2348999999999895e-003
+ 1.971127e-009 8.9527999999999830e-003
+ 1.976130e-009 9.6620999999999513e-003
+ 1.981128e-009 1.0321999999999998e-002
+ 1.986127e-009 1.0898899999999989e-002
+ 1.991129e-009 1.1375199999999974e-002
+ 1.996128e-009 1.1745699999999970e-002
+ 1.998675e-009 1.1894899999999986e-002
+ 2.003674e-009 1.2088899999999958e-002
+ 2.008672e-009 1.2150499999999953e-002
+ 2.013675e-009 1.2085999999999986e-002
+ 2.018673e-009 1.1907099999999948e-002
+ 2.023676e-009 1.1626799999999993e-002
+ 2.028674e-009 1.1273299999999986e-002
+ 2.033673e-009 1.0875699999999988e-002
+ 2.036220e-009 1.0665399999999992e-002
+ 2.041219e-009 1.0245799999999972e-002
+ 2.046221e-009 9.8332999999999893e-003
+ 2.051220e-009 9.4474999999999976e-003
+ 2.056218e-009 9.1042999999999541e-003
+ 2.061221e-009 8.8104999999999989e-003
+ 2.066219e-009 8.5729999999999973e-003
+ 2.071218e-009 8.3906999999999732e-003
+ 2.076220e-009 8.2523999999999931e-003
+ 2.081219e-009 8.1424999999999970e-003
+ 2.083766e-009 8.0963999999999481e-003
+ 2.088765e-009 8.0145999999999828e-003
+ 2.093767e-009 7.9391999999999796e-003
+ 2.098766e-009 7.8565999999999914e-003
+ 2.103764e-009 7.7597999999999834e-003
+ 2.108767e-009 7.6400999999999830e-003
+ 2.113765e-009 7.4940999999999480e-003
+ 2.118764e-009 7.3135999999999757e-003
+ 2.123766e-009 7.0951999999999682e-003
+ 2.128765e-009 6.8387999999999782e-003
+ 2.133767e-009 6.5546999999999689e-003
+ 2.138766e-009 6.2535999999999703e-003
+ 2.143764e-009 5.9535999999999478e-003
+ 2.146312e-009 5.8037999999999701e-003
+ 2.151310e-009 5.5247999999999964e-003
+ 2.156313e-009 5.2740000000000009e-003
+ 2.161311e-009 5.0684999999999758e-003
+ 2.164388e-009 4.9656999999999618e-003
+ 2.164420e-009 4.9651999999999474e-003
+ 2.164516e-009 4.9617999999999607e-003
+ 2.164821e-009 4.9530999999999881e-003
+ 2.165528e-009 4.9320999999999948e-003
+ 2.167795e-009 4.8725999999999492e-003
+ 2.172794e-009 4.7700999999999993e-003
+ 2.173856e-009 4.7536999999999718e-003
+ 2.177256e-009 4.7065999999999497e-003
+ 2.182258e-009 4.6550999999999676e-003
+ 2.187257e-009 4.6142999999999601e-003
+ 2.192259e-009 4.5771999999999480e-003
+ 2.197258e-009 4.5343999999999940e-003
+ 2.202256e-009 4.4842999999999966e-003
+ 2.207258e-009 4.4202999999999881e-003
+ 2.209802e-009 4.3821999999999472e-003
+ 2.214804e-009 4.2954999999999521e-003
+ 2.219803e-009 4.1966999999999977e-003
+ 2.224802e-009 4.0829999999999478e-003
+ 2.229804e-009 3.9574999999999472e-003
+ 2.234803e-009 3.8248999999999644e-003
+ 2.239801e-009 3.6934999999999607e-003
+ 2.242349e-009 3.6270999999999942e-003
+ 2.247347e-009 3.5001999999999533e-003
+ 2.252349e-009 3.3773999999999749e-003
+ 2.257348e-009 3.2637999999999834e-003
+ 2.262350e-009 3.1602999999999493e-003
+ 2.267349e-009 3.0706999999999818e-003
+ 2.272348e-009 2.9955999999999872e-003
+ 2.277350e-009 2.9377999999999904e-003
+ 2.279894e-009 2.9134999999999578e-003
+ 2.284896e-009 2.8767999999999572e-003
+ 2.289895e-009 2.8496999999999550e-003
+ 2.294893e-009 2.8305999999999609e-003
+ 2.299895e-009 2.8166000000000024e-003
+ 2.304894e-009 2.8066999999999953e-003
+ 2.309893e-009 2.7949999999999919e-003
+ 2.314895e-009 2.7800999999999521e-003
+ 2.319894e-009 2.7564999999999951e-003
+ 2.324896e-009 2.7248999999999746e-003
+ 2.329895e-009 2.6839999999999642e-003
+ 2.334893e-009 2.6370000000000005e-003
+ 2.339895e-009 2.5836999999999666e-003
+ 2.344894e-009 2.5266999999999928e-003
+ 2.347441e-009 2.4955999999999867e-003
+ 2.352440e-009 2.4347999999999592e-003
+ 2.357439e-009 2.3728999999999556e-003
+ 2.362441e-009 2.3133999999999655e-003
+ 2.367440e-009 2.2563999999999917e-003
+ 2.372442e-009 2.2053999999999685e-003
+ 2.377441e-009 2.1607999999999628e-003
+ 2.379988e-009 2.1419999999999773e-003
+ 2.384986e-009 2.1109999999999740e-003
+ 2.389985e-009 2.0900999999999836e-003
+ 2.394987e-009 2.0764999999999811e-003
+ 2.399986e-009 2.0726999999999829e-003
+ 2.404985e-009 2.0756999999999581e-003
+ 2.409987e-009 2.0838999999999719e-003
+ 2.414986e-009 2.0918999999999799e-003
+ 2.419988e-009 2.0981999999999945e-003
+ 2.424987e-009 2.0984999999999476e-003
+ 2.429985e-009 2.0937999999999790e-003
+ 2.434987e-009 2.0823999999999843e-003
+ 2.437531e-009 2.0751999999999993e-003
+ 2.442533e-009 2.0567999999999698e-003
+ 2.447532e-009 2.0364999999999966e-003
+ 2.452531e-009 2.0135999999999488e-003
+ 2.457533e-009 1.9905999999999535e-003
+ 2.462532e-009 1.9668999999999937e-003
+ 2.465079e-009 1.9558999999999549e-003
+ 2.470078e-009 1.9342999999999999e-003
+ 2.475076e-009 1.9162999999999819e-003
+ 2.480078e-009 1.9011999999999918e-003
+ 2.485077e-009 1.8906999999999674e-003
+ 2.490079e-009 1.8824999999999537e-003
+ 2.495078e-009 1.8773999999999735e-003
+ 2.500077e-009 1.8728999999999552e-003
+ 2.505079e-009 1.8699999999999828e-003
+ 2.510078e-009 1.8654999999999644e-003
+ 2.515076e-009 1.8599999999999728e-003
+ 2.520078e-009 1.8503999999999743e-003
+ 2.525077e-009 1.8382999999999594e-003
+ 2.530079e-009 1.8218999999999874e-003
+ 2.535078e-009 1.8034999999999579e-003
+ 2.540077e-009 1.7828999999999762e-003
+ 2.545079e-009 1.7639999999999878e-003
+ 2.550078e-009 1.7471000000000014e-003
+ 2.555076e-009 1.7357999999999540e-003
+ 2.560078e-009 1.7293999999999921e-003
+ 2.565077e-009 1.7295999999999978e-003
+ 2.570079e-009 1.7329999999999846e-003
+ 2.575078e-009 1.7376999999999532e-003
+ 2.580077e-009 1.7376999999999532e-003
+ 2.585079e-009 1.7316999999999472e-003
+ 2.590078e-009 1.7154999999999809e-003
+ 2.595076e-009 1.6903999999999808e-003
+ 2.600078e-009 1.6585999999999546e-003
+ 2.605077e-009 1.6286999999999829e-003
+ 2.610079e-009 1.6092999999999802e-003
+ 2.615078e-009 1.6132999999999842e-003
+ 2.620077e-009 1.6497999999999791e-003
+ 2.625079e-009 1.7284999999999662e-003
+ 2.630078e-009 1.8517999999999590e-003
+ 2.635076e-009 2.0229999999999970e-003
+ 2.640078e-009 2.2370999999999919e-003
+ 2.645077e-009 2.4907999999999597e-003
+ 2.650079e-009 2.7692999999999746e-003
+ 2.655078e-009 3.0463000000000018e-003
+ 2.660077e-009 3.2808999999999755e-003
+ 2.665079e-009 3.4444999999999615e-003
+ 2.670078e-009 3.5282999999999842e-003
+ 2.673986e-009 3.5425999999999513e-003
+ 2.674014e-009 3.5420999999999925e-003
+ 2.674110e-009 3.5422999999999982e-003
+ 2.674419e-009 3.5409999999999608e-003
+ 2.675197e-009 3.5381999999999914e-003
+ 2.676845e-009 3.5261999999999794e-003
+ 2.681848e-009 3.4466999999999692e-003
+ 2.686846e-009 3.3081999999999834e-003
+ 2.691845e-009 3.1321999999999739e-003
+ 2.696847e-009 2.9312999999999700e-003
+ 2.701846e-009 2.7245999999999659e-003
+ 2.706848e-009 2.5328999999999491e-003
+ 2.711847e-009 2.3757999999999835e-003
+ 2.716845e-009 2.2645999999999500e-003
+ 2.721848e-009 2.2096999999999811e-003
+ 2.726846e-009 2.2087999999999552e-003
+ 2.731845e-009 2.2522999999999849e-003
+ 2.736847e-009 2.3251999999999717e-003
+ 2.741846e-009 2.4151999999999507e-003
+ 2.746848e-009 2.5065999999999700e-003
+ 2.751847e-009 2.5937999999999795e-003
+ 2.756845e-009 2.6805999999999774e-003
+ 2.761848e-009 2.7827999999999742e-003
+ 2.766846e-009 2.9125999999999874e-003
+ 2.771845e-009 3.0719999999999636e-003
+ 2.776847e-009 3.2544999999999935e-003
+ 2.781846e-009 3.4627999999999881e-003
+ 2.786848e-009 3.6965999999999943e-003
+ 2.791847e-009 3.9555999999999480e-003
+ 2.796845e-009 4.2327999999999810e-003
+ 2.801848e-009 4.5265999999999917e-003
+ 2.806846e-009 4.8339999999999494e-003
+ 2.811845e-009 5.1480999999999888e-003
+ 2.816847e-009 5.4464999999999653e-003
+ 2.821846e-009 5.6993999999999656e-003
+ 2.826848e-009 5.8628999999999487e-003
+ 2.831847e-009 5.9036999999999562e-003
+ 2.836846e-009 5.7992999999999517e-003
+ 2.841848e-009 5.5421999999999971e-003
+ 2.846846e-009 5.1447000000000020e-003
+ 2.851845e-009 4.6307999999999905e-003
+ 2.856847e-009 4.0155999999999525e-003
+ 2.861846e-009 3.3191999999999666e-003
+ 2.864393e-009 2.9413999999999829e-003
+ 2.869392e-009 2.1707999999999728e-003
+ 2.874391e-009 1.3726999999999490e-003
+ 2.879393e-009 5.7469999999998356e-004
+ 2.884391e-009 -2.0120000000001248e-004
+ 2.889394e-009 -9.3120000000002090e-004
+ 2.894392e-009 -1.6004000000000018e-003
+ 2.899391e-009 -2.1986000000000505e-003
+ 2.904393e-009 -2.7274000000000465e-003
+ 2.909392e-009 -3.1892000000000031e-003
+ 2.914391e-009 -3.5882000000000414e-003
+ 2.919393e-009 -3.9222000000000423e-003
+ 2.924391e-009 -4.1932000000000080e-003
+ 2.929394e-009 -4.4004000000000265e-003
+ 2.934392e-009 -4.5454000000000327e-003
+ 2.939391e-009 -4.6273000000000009e-003
+ 2.944393e-009 -4.6496000000000315e-003
+ 2.949392e-009 -4.6119000000000021e-003
+ 2.954391e-009 -4.5171000000000516e-003
+ 2.959393e-009 -4.3623000000000411e-003
+ 2.964391e-009 -4.1478000000000348e-003
+ 2.969394e-009 -3.8797000000000414e-003
+ 2.974392e-009 -3.5745000000000360e-003
+ 2.979391e-009 -3.2425000000000370e-003
+ 2.984393e-009 -2.8947000000000278e-003
+ 2.989392e-009 -2.5410000000000155e-003
+ 2.994391e-009 -2.1940000000000293e-003
+ 2.999393e-009 -1.8615000000000159e-003
+ 3.004391e-009 -1.5550000000000286e-003
+ 3.009394e-009 -1.2845000000000217e-003
+ 3.014392e-009 -1.0635000000000505e-003
+ 3.019391e-009 -9.0020000000001765e-004
+ 3.024393e-009 -8.0430000000003554e-004
+ 3.029392e-009 -7.8120000000003742e-004
+ 3.034391e-009 -8.3640000000001491e-004
+ 3.039393e-009 -9.6650000000003677e-004
+ 3.044391e-009 -1.1645000000000127e-003
+ 3.049394e-009 -1.4157000000000197e-003
+ 3.054392e-009 -1.7053000000000207e-003
+ 3.059391e-009 -2.0133999999999985e-003
+ 3.064393e-009 -2.3206000000000060e-003
+ 3.069392e-009 -2.6031000000000248e-003
+ 3.074391e-009 -2.8385000000000216e-003
+ 3.079393e-009 -3.0024000000000162e-003
+ 3.084391e-009 -3.0814000000000119e-003
+ 3.089394e-009 -3.0680000000000152e-003
+ 3.094392e-009 -2.9635000000000078e-003
+ 3.096940e-009 -2.8759000000000423e-003
+ 3.101938e-009 -2.6381000000000321e-003
+ 3.106937e-009 -2.3148000000000057e-003
+ 3.111939e-009 -1.9251000000000129e-003
+ 3.116938e-009 -1.4874000000000276e-003
+ 3.121937e-009 -1.0246000000000421e-003
+ 3.126939e-009 -5.5560000000004495e-004
+ 3.129483e-009 -3.2229999999999759e-004
+ 3.134485e-009 1.1679999999997248e-004
+ 3.139483e-009 5.2199999999996693e-004
+ 3.144486e-009 8.8459999999995764e-004
+ 3.149484e-009 1.1996999999999702e-003
+ 3.154483e-009 1.4689999999999981e-003
+ 3.159485e-009 1.6924999999999857e-003
+ 3.164484e-009 1.8734999999999724e-003
+ 3.169483e-009 2.0117999999999525e-003
+ 3.174485e-009 2.1101999999999510e-003
+ 3.179483e-009 2.1690999999999794e-003
+ 3.183583e-009 2.1913999999999545e-003
+ 3.183612e-009 2.1911000000000014e-003
+ 3.183708e-009 2.1916999999999631e-003
+ 3.184017e-009 2.1919999999999717e-003
+ 3.184997e-009 2.1938999999999709e-003
+ 3.187580e-009 2.1921999999999775e-003
+ 3.192579e-009 2.1679000000000004e-003
+ 3.197577e-009 2.1181999999999590e-003
+ 3.202580e-009 2.0512999999999781e-003
+ 3.207578e-009 1.9700999999999746e-003
+ 3.211127e-009 1.9071999999999978e-003
+ 3.216130e-009 1.8104999999999927e-003
+ 3.221128e-009 1.7081999999999931e-003
+ 3.226127e-009 1.6028999999999627e-003
+ 3.231129e-009 1.4983999999999553e-003
+ 3.236128e-009 1.3949999999999796e-003
+ 3.241130e-009 1.2949999999999906e-003
+ 3.246129e-009 1.1969999999999481e-003
+ 3.251127e-009 1.1020999999999948e-003
+ 3.256130e-009 1.0088999999999793e-003
+ 3.261128e-009 9.1969999999996777e-004
+ 3.266127e-009 8.3379999999999566e-004
+ 3.271129e-009 7.5369999999996828e-004
+ 3.276128e-009 6.7839999999996792e-004
+ 3.278675e-009 6.4319999999995492e-004
+ 3.283674e-009 5.7909999999999906e-004