.SUBCKT impulse_src Out Gnd_Src
Vsrc Out Gnd_Src PWL (
+ 0.000000e+000 5.7044124107379810e+000
+ 1.984127e-012 5.7115402323126787e+000
+ 3.968254e-012 5.7186898420843866e+000
+ 5.952381e-012 5.7258456731198990e+000
+ 7.936508e-012 5.7330090538238441e+000
+ 9.920635e-012 5.7401892231276053e+000
+ 1.190476e-011 5.7473845224219575e+000
+ 1.388889e-011 5.7545926215117627e+000
+ 1.587302e-011 5.7618135431650659e+000
+ 1.785714e-011 5.7690481350532110e+000
+ 1.984127e-011 5.7762972159586115e+000
+ 2.182540e-011 5.7835615005136889e+000
+ 2.380952e-011 5.7908415004970051e+000
+ 2.579365e-011 5.7981361860194900e+000
+ 2.777778e-011 5.8054434360262048e+000
+ 2.976190e-011 5.8127626052993486e+000
+ 3.174603e-011 5.8200952855296428e+000
+ 3.373016e-011 5.8274438634071961e+000
+ 3.571429e-011 5.8348100815038677e+000
+ 3.769841e-011 5.8421959223331115e+000
+ 3.968254e-011 5.8496009007903194e+000
+ 4.166667e-011 5.8570205054683830e+000
+ 4.365079e-011 5.8644506767115274e+000
+ 4.563492e-011 5.8718956801545437e+000
+ 4.761905e-011 5.8793618971696828e+000
+ 4.960317e-011 5.8868471117396952e+000
+ 5.158730e-011 5.8943451881597557e+000
+ 5.357143e-011 5.9018555507986727e+000
+ 5.555556e-011 5.9093817970363078e+000
+ 5.753968e-011 5.9169271200202784e+000
+ 5.952381e-011 5.9244911384654078e+000
+ 6.150794e-011 5.9320723217567632e+000
+ 6.349206e-011 5.9396702909695342e+000
+ 6.547619e-011 5.9472854659864147e+000
+ 6.746032e-011 5.9549183011238283e+000
+ 6.944444e-011 5.9625688766356291e+000
+ 7.142857e-011 5.9702371838126611e+000
+ 7.341270e-011 5.9779232658092054e+000
+ 7.539683e-011 5.9856271819242330e+000
+ 7.738095e-011 5.9933490346083103e+000
+ 7.936508e-011 6.0010889534070202e+000
+ 8.134921e-011 6.0088471071875098e+000
+ 8.333333e-011 6.0166235154584697e+000
+ 8.531746e-011 6.0244179999666265e+000
+ 8.730159e-011 6.0322305282030539e+000
+ 8.928571e-011 6.0400617141484609e+000
+ 9.126984e-011 6.0479118197273234e+000
+ 9.325397e-011 6.0557794733013814e+000
+ 9.523810e-011 6.0636650127374718e+000
+ 9.722222e-011 6.0715705002884501e+000
+ 9.920635e-011 6.0794956699419833e+000
+ 1.011905e-010 6.0874380782995567e+000
+ 1.031746e-010 6.0953957297885628e+000
+ 1.051587e-010 6.1033697819569639e+000
+ 1.071429e-010 6.1113628254770820e+000
+ 1.091270e-010 6.1193764400025055e+000
+ 1.111111e-010 6.1274114747298434e+000
+ 1.130952e-010 6.1354685130522091e+000
+ 1.150794e-010 6.1435477697175731e+000
+ 1.170635e-010 6.1516491230539216e+000
+ 1.190476e-010 6.1597695599342703e+000
+ 1.210317e-010 6.1679021713112165e+000
+ 1.230159e-010 6.1760448410666511e+000
+ 1.250000e-010 6.1842208194151258e+000
+ 1.269841e-010 6.1924282304605880e+000
+ 1.289683e-010 6.2006330140619657e+000
+ 1.309524e-010 6.2088729268406171e+000
+ 1.329365e-010 6.2171266038330062e+000
+ 1.349206e-010 6.2253974502561054e+000
+ 1.369048e-010 6.2336912351698706e+000
+ 1.388889e-010 6.2420066701992996e+000
+ 1.408730e-010 6.2503413985039931e+000
+ 1.428571e-010 6.2586959910313436e+000
+ 1.448413e-010 6.2670732645597553e+000
+ 1.468254e-010 6.2754751223481495e+000
+ 1.488095e-010 6.2839003909124500e+000
+ 1.507937e-010 6.2923467525162877e+000
+ 1.527778e-010 6.3008127530001570e+000
+ 1.547619e-010 6.3092972125029920e+000
+ 1.567460e-010 6.3177997352517536e+000
+ 1.587302e-010 6.3263216640138262e+000
+ 1.607143e-010 6.3348653452358459e+000
+ 1.626984e-010 6.3434319243277946e+000
+ 1.646825e-010 6.3520217296645072e+000
+ 1.666667e-010 6.3606347039179649e+000
+ 1.686508e-010 6.3692701201339945e+000
+ 1.706349e-010 6.3779269890634653e+000
+ 1.726190e-010 6.3866053097479076e+000
+ 1.746032e-010 6.3953054442001660e+000
+ 1.765873e-010 6.4040277592717967e+000
+ 1.785714e-010 6.4127726280192707e+000
+ 1.805556e-010 6.4215400558514029e+000
+ 1.825397e-010 6.4303298519076870e+000
+ 1.845238e-010 6.4391421321259896e+000
+ 1.865079e-010 6.4479776242617026e+000
+ 1.884921e-010 6.4568370541818689e+000
+ 1.904762e-010 6.4657193296447337e+000
+ 1.924603e-010 6.4746220030856634e+000
+ 1.944444e-010 6.4835441181694220e+000
+ 1.964286e-010 6.4924876754570962e+000
+ 1.984127e-010 6.5014556596297233e+000
+ 2.003968e-010 6.5104485821955009e+000
+ 2.023810e-010 6.5194655901212073e+000
+ 2.043651e-010 6.5285058645960516e+000
+ 2.063492e-010 6.5375691000334761e+000
+ 2.083333e-010 6.5466551158940387e+000
+ 2.103175e-010 6.5557651683210967e+000
+ 2.123016e-010 6.5649019216680760e+000
+ 2.142857e-010 6.5740662051503289e+000
+ 2.162698e-010 6.5832546482563812e+000
+ 2.182540e-010 6.5924647463187629e+000
+ 2.202381e-010 6.6016962651106663e+000
+ 2.222222e-010 6.6109514934293125e+000
+ 2.242063e-010 6.6202326377066196e+000
+ 2.261905e-010 6.6295394772652996e+000
+ 2.281746e-010 6.6388710335361756e+000
+ 2.301587e-010 6.6482270686582821e+000
+ 2.321429e-010 6.6576079309764005e+000
+ 2.341270e-010 6.6670139653792111e+000
+ 2.361111e-010 6.6764452799800775e+000
+ 2.380952e-010 6.6859019353234981e+000
+ 2.400794e-010 6.6953839787815079e+000
+ 2.420635e-010 6.7048914822620089e+000
+ 2.440476e-010 6.7144245395957354e+000
+ 2.460317e-010 6.7239833647592926e+000
+ 2.480159e-010 6.7335682609347440e+000
+ 2.500000e-010 6.7431791501190332e+000
+ 2.519841e-010 6.7528155238212646e+000
+ 2.539683e-010 6.7624771867259588e+000
+ 2.559524e-010 6.7721656065686719e+000
+ 2.579365e-010 6.7818832842562422e+000
+ 2.599206e-010 6.7916301475510554e+000
+ 2.619048e-010 6.8014031346675674e+000
+ 2.638889e-010 6.8111997261588062e+000
+ 2.658730e-010 6.8210207344932741e+000
+ 2.678571e-010 6.8308680578122916e+000
+ 2.698413e-010 6.8407433520984160e+000
+ 2.718254e-010 6.8506487125152598e+000
+ 2.738095e-010 6.8605848120780513e+000
+ 2.757937e-010 6.8705504534398401e+000
+ 2.777778e-010 6.8805437079993697e+000
+ 2.797619e-010 6.8905628258604690e+000
+ 2.817460e-010 6.9006055680699561e+000
+ 2.837302e-010 6.9106724783334839e+000
+ 2.857143e-010 6.9207682648142628e+000
+ 2.876984e-010 6.9308983603620131e+000
+ 2.896825e-010 6.9410608315119209e+000
+ 2.916667e-010 6.9512492270276898e+000
+ 2.936508e-010 6.9614604698558988e+000
+ 2.956349e-010 6.9716976143862794e+000
+ 2.976190e-010 6.9819653034424567e+000
+ 2.996032e-010 6.9922640743046260e+000
+ 3.015873e-010 7.0025924351704205e+000
+ 3.035714e-010 7.0129494128921470e+000
+ 3.055556e-010 7.0233353644744279e+000
+ 3.075397e-010 7.0337509359271388e+000
+ 3.095238e-010 7.0441963068953557e+000
+ 3.115079e-010 7.0546714319429285e+000
+ 3.134921e-010 7.0651763636157483e+000
+ 3.154762e-010 7.0757113672802374e+000
+ 3.174603e-010 7.0862767616716722e+000
+ 3.194444e-010 7.0968723533944011e+000
+ 3.214286e-010 7.1074974945964806e+000
+ 3.234127e-010 7.1181523396922133e+000
+ 3.253968e-010 7.1288388375444640e+000
+ 3.273810e-010 7.1395596710037346e+000
+ 3.293651e-010 7.1503145845252885e+000
+ 3.313492e-010 7.1611010445562409e+000
+ 3.333333e-010 7.1719171039449829e+000
+ 3.353175e-010 7.1827633743315928e+000
+ 3.373016e-010 7.1936413454090467e+000
+ 3.392857e-010 7.2045514862689926e+000
+ 3.412698e-010 7.2154936237971352e+000
+ 3.432540e-010 7.2264676167735704e+000
+ 3.452381e-010 7.2374736261759693e+000
+ 3.472222e-010 7.2485119215426250e+000
+ 3.492063e-010 7.2595826900440370e+000
+ 3.511905e-010 7.2706860785077305e+000
+ 3.531746e-010 7.2818222408368811e+000
+ 3.551587e-010 7.2929913077953898e+000
+ 3.571429e-010 7.3041934266722786e+000
+ 3.591270e-010 7.3154287783390100e+000
+ 3.611111e-010 7.3266975910905945e+000
+ 3.630952e-010 7.3380000612294687e+000
+ 3.650794e-010 7.3493361719055903e+000
+ 3.670635e-010 7.3607058139506378e+000
+ 3.690476e-010 7.3721093988376252e+000
+ 3.710317e-010 7.3835479861928031e+000
+ 3.730159e-010 7.3950221177548752e+000
+ 3.750000e-010 7.4065297636253975e+000
+ 3.769841e-010 7.4180674711012227e+000
+ 3.789683e-010 7.4296400902073545e+000
+ 3.809524e-010 7.4412535420515589e+000
+ 3.829365e-010 7.4529061129734506e+000
+ 3.849206e-010 7.4645938347940923e+000
+ 3.869048e-010 7.4763150183662894e+000
+ 3.888889e-010 7.4880690466396072e+000
+ 3.908730e-010 7.4998559483944813e+000
+ 3.928571e-010 7.5116768897786450e+000
+ 3.948413e-010 7.5235337931940522e+000
+ 3.968254e-010 7.5354282495640454e+000
+ 3.988095e-010 7.5473619066950208e+000
+ 4.007937e-010 7.5593356031757279e+000
+ 4.027778e-010 7.5713480209308806e+000
+ 4.047619e-010 7.5833966594881188e+000
+ 4.067460e-010 7.5954810209477106e+000
+ 4.087302e-010 7.6076022295765080e+000
+ 4.107143e-010 7.6197614389521080e+000
+ 4.126984e-010 7.6319587726629674e+000
+ 4.146825e-010 7.6441940631229217e+000
+ 4.166667e-010 7.6564673497443581e+000
+ 4.186508e-010 7.6687788134800581e+000
+ 4.206349e-010 7.6811286740203633e+000
+ 4.226190e-010 7.6935172531765783e+000
+ 4.246032e-010 7.7059449204464565e+000
+ 4.265873e-010 7.7184116550742026e+000
+ 4.285714e-010 7.7309169332273031e+000
+ 4.305556e-010 7.7434605993567525e+000
+ 4.325397e-010 7.7560443819155811e+000
+ 4.345238e-010 7.7686711180900714e+000
+ 4.365079e-010 7.7813413395683817e+000
+ 4.384921e-010 7.7940529130376390e+000
+ 4.404762e-010 7.8068034385534908e+000
+ 4.424603e-010 7.8195932428742854e+000
+ 4.444444e-010 7.8324237883509591e+000
+ 4.464286e-010 7.8452958715068446e+000
+ 4.484127e-010 7.8582094530879196e+000
+ 4.503968e-010 7.8711643848098483e+000
+ 4.523810e-010 7.8841608715896427e+000
+ 4.543651e-010 7.8971992326321017e+000
+ 4.563492e-010 7.9102797223126942e+000
+ 4.583333e-010 7.9234024849283093e+000
+ 4.603175e-010 7.9365676524008517e+000
+ 4.623016e-010 7.9497755528721674e+000
+ 4.642857e-010 7.9630266236594007e+000
+ 4.662698e-010 7.9763209792894445e+000
+ 4.682540e-010 7.9896581951249761e+000
+ 4.702381e-010 8.0030379126393090e+000
+ 4.722222e-010 8.0164616224833019e+000
+ 4.742063e-010 8.0299321415426412e+000
+ 4.761905e-010 8.0434506032884485e+000
+ 4.781746e-010 8.0570152204402952e+000
+ 4.801587e-010 8.0706233491501678e+000
+ 4.821429e-010 8.0842749920344783e+000
+ 4.841270e-010 8.0979715497080491e+000
+ 4.861111e-010 8.1117140650263977e+000
+ 4.880952e-010 8.1255025974977109e+000
+ 4.900794e-010 8.1393370052510239e+000
+ 4.920635e-010 8.1532174819443153e+000
+ 4.940476e-010 8.1671443523868916e+000
+ 4.960317e-010 8.1811179273756345e+000
+ 4.980159e-010 8.1951384551553872e+000
+ 5.000000e-010 8.2092061423982994e+000
+ 5.019841e-010 8.2233212223005889e+000
+ 5.039683e-010 8.2374839061909810e+000
+ 5.059524e-010 8.2516944565926664e+000
+ 5.079365e-010 8.2659532638469759e+000
+ 5.099206e-010 8.2802607219740469e+000
+ 5.119048e-010 8.2946167950245684e+000
+ 5.138889e-010 8.3090209755528104e+000
+ 5.158730e-010 8.3234734635973240e+000
+ 5.178571e-010 8.3379763033215095e+000
+ 5.198413e-010 8.3525323298370395e+000
+ 5.218254e-010 8.3671415734290413e+000
+ 5.238095e-010 8.3818016936364526e+000
+ 5.257937e-010 8.3965107388735341e+000
+ 5.277778e-010 8.4112693909010190e+000
+ 5.297619e-010 8.4260792375823819e+000
+ 5.317460e-010 8.4409409508302158e+000
+ 5.337302e-010 8.4558545211446674e+000
+ 5.357143e-010 8.4708199348206925e+000
+ 5.376984e-010 8.4858374873166440e+000
+ 5.396825e-010 8.5009075397319229e+000
+ 5.416667e-010 8.5160304317682129e+000
+ 5.436508e-010 8.5312064540625361e+000
+ 5.456349e-010 8.5464358884706471e+000
+ 5.476190e-010 8.5617190399059151e+000
+ 5.496032e-010 8.5770561893859902e+000
+ 5.515873e-010 8.5924476382192783e+000
+ 5.535714e-010 8.6078936855857950e+000
+ 5.555556e-010 8.6233946295338768e+000
+ 5.575397e-010 8.6389507973665829e+000
+ 5.595238e-010 8.6545625053185997e+000
+ 5.615079e-010 8.6702300445687879e+000
+ 5.634921e-010 8.6859536477787707e+000
+ 5.654762e-010 8.7017335715776074e+000
+ 5.674603e-010 8.7175702826030665e+000
+ 5.694444e-010 8.7334643547928348e+000
+ 5.714286e-010 8.7494159032228165e+000
+ 5.734127e-010 8.7654243559757870e+000
+ 5.753968e-010 8.7814894424559160e+000
+ 5.773810e-010 8.7976134087555948e+000
+ 5.793651e-010 8.8138001833085813e+000
+ 5.813492e-010 8.8300501616280016e+000
+ 5.833333e-010 8.8463587283724134e+000
+ 5.853175e-010 8.8627207477557715e+000
+ 5.873016e-010 8.8791388189139777e+000
+ 5.892857e-010 8.8956199925341295e+000
+ 5.912698e-010 8.9121675830507190e+000
+ 5.932540e-010 8.9287788728610451e+000
+ 5.952381e-010 8.9454497793380181e+000
+ 5.972222e-010 8.9621803403931146e+000
+ 5.992063e-010 8.9789724856023945e+000
+ 6.011905e-010 8.9958276317870300e+000
+ 6.031746e-010 9.0127460211580210e+000
+ 6.051587e-010 9.0297276528245032e+000
+ 6.071429e-010 9.0467724816418684e+000
+ 6.091270e-010 9.0638801936594859e+000
+ 6.111111e-010 9.0810514260118769e+000
+ 6.130952e-010 9.0982884310504684e+000
+ 6.150794e-010 9.1155939382038973e+000
+ 6.170635e-010 9.1329678262627283e+000
+ 6.190476e-010 9.1504079504828510e+000
+ 6.210317e-010 9.1679128079155383e+000
+ 6.230159e-010 9.1854826053581782e+000
+ 6.250000e-010 9.2031182034624912e+000
+ 6.269841e-010 9.2208218027619910e+000
+ 6.289683e-010 9.2385971096416633e+000
+ 6.309524e-010 9.2564439282381166e+000
+ 6.329365e-010 9.2743514443371549e+000
+ 6.349206e-010 9.2923213223158374e+000
+ 6.369048e-010 9.3103763979670937e+000
+ 6.388889e-010 9.3284782870127607e+000
+ 6.408730e-010 9.3466786098388202e+000
+ 6.428571e-010 9.3649416105746752e+000
+ 6.448413e-010 9.3832681608973587e+000
+ 6.468254e-010 9.4016666962577702e+000
+ 6.488095e-010 9.4201396932484815e+000
+ 6.507937e-010 9.4386861513924583e+000
+ 6.527778e-010 9.4573047868000835e+000
+ 6.547619e-010 9.4759960591877128e+000
+ 6.567460e-010 9.4947609494652419e+000
+ 6.587302e-010 9.5136000809362891e+000
+ 6.607143e-010 9.5325140006869091e+000
+ 6.626984e-010 9.5515030702624450e+000
+ 6.646825e-010 9.5705672502150438e+000
+ 6.666667e-010 9.5897062971839908e+000
+ 6.686508e-010 9.6089213052660369e+000
+ 6.706349e-010 9.6282149645154629e+000
+ 6.726190e-010 9.6475896078203327e+000
+ 6.746032e-010 9.6670444795212287e+000
+ 6.765873e-010 9.6865772945916078e+000
+ 6.785714e-010 9.7061872115578982e+000
+ 6.805556e-010 9.7258749023111992e+000
+ 6.825397e-010 9.7456416327245297e+000
+ 6.845238e-010 9.7654893566152658e+000
+ 6.865079e-010 9.7854208688239179e+000
+ 6.884921e-010 9.8054369182941130e+000
+ 6.904762e-010 9.8255357396835663e+000
+ 6.924603e-010 9.8457152597811746e+000
+ 6.944444e-010 9.8659761394807255e+000
+ 6.964286e-010 9.8863203388567182e+000
+ 6.984127e-010 9.9067488504063874e+000
+ 7.003968e-010 9.9272612640847466e+000
+ 7.023810e-010 9.9478572575055857e+000
+ 7.043651e-010 9.9685387685218743e+000
+ 7.063492e-010 9.9893092412639550e+000
+ 7.083333e-010 1.0010169894146586e+001
+ 7.103175e-010 1.0031118556210153e+001
+ 7.123016e-010 1.0052152469014354e+001
+ 7.142857e-010 1.0073273218831210e+001
+ 7.162698e-010 1.0094484955068134e+001
+ 7.182540e-010 1.0115789987679028e+001
+ 7.202381e-010 1.0137187387945303e+001
+ 7.222222e-010 1.0158675205846006e+001
+ 7.242063e-010 1.0180252134995625e+001
+ 7.261905e-010 1.0201916500468535e+001
+ 7.281746e-010 1.0223672177861740e+001
+ 7.301587e-010 1.0245526506167016e+001
+ 7.321429e-010 1.0267478704311776e+001
+ 7.341270e-010 1.0289524676753175e+001
+ 7.361111e-010 1.0311663203595625e+001
+ 7.380952e-010 1.0333896165275336e+001
+ 7.400794e-010 1.0356225816818867e+001
+ 7.420635e-010 1.0378652844532034e+001
+ 7.440476e-010 1.0401177420044414e+001
+ 7.460317e-010 1.0423799952964528e+001
+ 7.480159e-010 1.0446521121118920e+001
+ 7.500000e-010 1.0469341667741157e+001
+ 7.519841e-010 1.0492262439312618e+001
+ 7.539683e-010 1.0515284359255276e+001
+ 7.559524e-010 1.0538407913332437e+001
+ 7.579365e-010 1.0561632901315388e+001
+ 7.599206e-010 1.0584959331905331e+001
+ 7.619048e-010 1.0608389819548826e+001
+ 7.638889e-010 1.0631928792507278e+001
+ 7.658730e-010 1.0655577163135467e+001
+ 7.678571e-010 1.0679330370276357e+001
+ 7.698413e-010 1.0703183865292475e+001
+ 7.718254e-010 1.0727144506166651e+001
+ 7.738095e-010 1.0751215411397625e+001
+ 7.757937e-010 1.0775395229466771e+001
+ 7.777778e-010 1.0799682924857319e+001
+ 7.797619e-010 1.0824080815345933e+001
+ 7.817460e-010 1.0848592744807211e+001
+ 7.837302e-010 1.0873219892339442e+001
+ 7.857143e-010 1.0897960709038156e+001
+ 7.876984e-010 1.0922813443354000e+001
+ 7.896825e-010 1.0947778610392728e+001
+ 7.916667e-010 1.0972857557827970e+001
+ 7.936508e-010 1.0998052196563474e+001
+ 7.956349e-010 1.1023365250712979e+001
+ 7.976190e-010 1.1048799213593618e+001
+ 7.996032e-010 1.1074353796203221e+001
+ 8.015873e-010 1.1100027190224399e+001
+ 8.035714e-010 1.1125818871065363e+001
+ 8.055556e-010 1.1151729841249463e+001
+ 8.075397e-010 1.1177761704619105e+001
+ 8.095238e-010 1.1203916776186253e+001
+ 8.115079e-010 1.1230198251116999e+001
+ 8.134921e-010 1.1256607439769768e+001
+ 8.154762e-010 1.1283143056789257e+001
+ 8.174603e-010 1.1309803327732185e+001
+ 8.194444e-010 1.1336589222976622e+001
+ 8.214286e-010 1.1363503099491679e+001
+ 8.234127e-010 1.1390546476500194e+001
+ 8.253968e-010 1.1417719460579818e+001
+ 8.273810e-010 1.1445022132680435e+001
+ 8.293651e-010 1.1472456671971566e+001
+ 8.313492e-010 1.1500026737754176e+001
+ 8.333333e-010 1.1527734270244927e+001
+ 8.353175e-010 1.1555578236076206e+001
+ 8.373016e-010 1.1583556783248456e+001
+ 8.392857e-010 1.1611670666968349e+001
+ 8.412698e-010 1.1639922060069717e+001
+ 8.432540e-010 1.1668312830409205e+001
+ 8.452381e-010 1.1696843982172753e+001
+ 8.472222e-010 1.1725516358118210e+001
+ 8.492063e-010 1.1754330614621114e+001
+ 8.511905e-010 1.1783287142467257e+001
+ 8.531746e-010 1.1812387202365969e+001
+ 8.551587e-010 1.1841633778288374e+001
+ 8.571429e-010 1.1871030473051004e+001
+ 8.591270e-010 1.1900577860719407e+001
+ 8.611111e-010 1.1930274310955225e+001
+ 8.630952e-010 1.1960118991582146e+001
+ 8.650794e-010 1.1990113724823189e+001
+ 8.670635e-010 1.2020261189739960e+001
+ 8.690476e-010 1.2050562544169308e+001
+ 8.710317e-010 1.2081017907999316e+001
+ 8.730159e-010 1.2111628151331159e+001
+ 8.750000e-010 1.2142396237624329e+001
+ 8.769841e-010 1.2173326040895875e+001
+ 8.789683e-010 1.2204418645486466e+001
+ 8.809524e-010 1.2235672881471741e+001
+ 8.829365e-010 1.2267087818671873e+001
+ 8.849206e-010 1.2298664622134508e+001
+ 8.869048e-010 1.2330405186417170e+001
+ 8.888889e-010 1.2362311994379800e+001
+ 8.908730e-010 1.2394388415890836e+001
+ 8.928571e-010 1.2426637184292561e+001
+ 8.948413e-010 1.2459058270139870e+001
+ 8.968254e-010 1.2491650340346418e+001
+ 8.988095e-010 1.2524413686260090e+001
+ 9.007937e-010 1.2557349958145531e+001
+ 9.027778e-010 1.2590461400941031e+001
+ 9.047619e-010 1.2623750949269176e+001
+ 9.067460e-010 1.2657222295133957e+001
+ 9.087302e-010 1.2690876982323298e+001
+ 9.107143e-010 1.2724714322053664e+001
+ 9.126984e-010 1.2758733469214596e+001
+ 9.146825e-010 1.2792935672652188e+001
+ 9.166667e-010 1.2827322979055252e+001
+ 9.186508e-010 1.2861898033771492e+001
+ 9.206349e-010 1.2896664336089728e+001
+ 9.226190e-010 1.2931625169277826e+001
+ 9.246032e-010 1.2966781019745373e+001
+ 9.265873e-010 1.3002130851321732e+001
+ 9.285714e-010 1.3037674935789180e+001
+ 9.305556e-010 1.3073415111365383e+001
+ 9.325397e-010 1.3109353821997495e+001
+ 9.345238e-010 1.3145494203189235e+001
+ 9.365079e-010 1.3181840270161961e+001
+ 9.384921e-010 1.3218394183919337e+001
+ 9.404762e-010 1.3255155577304242e+001
+ 9.424603e-010 1.3292123599333181e+001
+ 9.444444e-010 1.3329300016682460e+001
+ 9.464286e-010 1.3366687916221721e+001
+ 9.484127e-010 1.3404289832275751e+001
+ 9.503968e-010 1.3442107363042480e+001
+ 9.523810e-010 1.3480142016137618e+001
+ 9.543651e-010 1.3518395744179992e+001
+ 9.563492e-010 1.3556870784407469e+001
+ 9.583333e-010 1.3595569062645783e+001
+ 9.603175e-010 1.3634491945106383e+001
+ 9.623016e-010 1.3673640849890354e+001
+ 9.642857e-010 1.3713018950467665e+001
+ 9.662698e-010 1.3752630819890548e+001
+ 9.682540e-010 1.3792479579276410e+001
+ 9.702381e-010 1.3832565529432966e+001
+ 9.722222e-010 1.3872888061962783e+001
+ 9.742063e-010 1.3913448641723237e+001
+ 9.761905e-010 1.3954249827153951e+001
+ 9.781746e-010 1.3995294768009167e+001
+ 9.801587e-010 1.4036587367269364e+001
+ 9.821429e-010 1.4078131977132177e+001
+ 9.841270e-010 1.4119930360844382e+001
+ 9.861111e-010 1.4161982403048084e+001
+ 9.880952e-010 1.4204288512081094e+001
+ 9.900794e-010 1.4246851025074493e+001
+ 9.920635e-010 1.4289672964999916e+001
+ 9.940476e-010 1.4332757970868570e+001
+ 9.960317e-010 1.4376110617102741e+001
+ 9.980159e-010 1.4419734578246358e+001
+ 1.000000e-009 1.4463630855139726e+001
+ 1.001984e-009 1.4507799336417188e+001
+ 1.003968e-009 1.4552241675446949e+001
+ 1.005952e-009 1.4596960726178779e+001
+ 1.007937e-009 1.4641960010730486e+001
+ 1.009921e-009 1.4687243958367773e+001
+ 1.011905e-009 1.4732817753379500e+001
+ 1.013889e-009 1.4778683689444534e+001
+ 1.015873e-009 1.4824841371882970e+001
+ 1.017857e-009 1.4871291217100216e+001
+ 1.019841e-009 1.4918038041515572e+001
+ 1.021825e-009 1.4965088641536665e+001
+ 1.023810e-009 1.5012446485697840e+001
+ 1.025794e-009 1.5060112022130888e+001
+ 1.027778e-009 1.5108085641145973e+001
+ 1.029762e-009 1.5156370156457841e+001
+ 1.031746e-009 1.5204969262369399e+001
+ 1.033730e-009 1.5253887335565722e+001
+ 1.035714e-009 1.5303129774528564e+001
+ 1.037698e-009 1.5352701503100194e+001
+ 1.039683e-009 1.5402603995102599e+001
+ 1.041667e-009 1.5452836895152041e+001
+ 1.043651e-009 1.5503403112876407e+001
+ 1.045635e-009 1.5554309359262664e+001
+ 1.047619e-009 1.5605562391875834e+001
+ 1.049603e-009 1.5657164099833759e+001
+ 1.051587e-009 1.5709113999028652e+001
+ 1.053571e-009 1.5761414771189623e+001
+ 1.055556e-009 1.5814073132198864e+001
+ 1.057540e-009 1.5867096230442828e+001
+ 1.059524e-009 1.5920486890374557e+001
+ 1.061508e-009 1.5974245869593734e+001
+ 1.063492e-009 1.6028375350695626e+001
+ 1.065476e-009 1.6082879508855086e+001
+ 1.067460e-009 1.6137763233899562e+001
+ 1.069444e-009 1.6193032000002908e+001
+ 1.071429e-009 1.6248692195065470e+001
+ 1.073413e-009 1.6304748545469735e+001
+ 1.075397e-009 1.6361203265493089e+001
+ 1.077381e-009 1.6418058009147881e+001
+ 1.079365e-009 1.6475316992536648e+001
+ 1.081349e-009 1.6532985822510245e+001
+ 1.083333e-009 1.6591069772526001e+001
+ 1.085317e-009 1.6649573362660181e+001
+ 1.087302e-009 1.6708501036116665e+001
+ 1.089286e-009 1.6767857080925882e+001
+ 1.091270e-009 1.6827645612365835e+001
+ 1.093254e-009 1.6887871719062169e+001
+ 1.095238e-009 1.6948542219851195e+001
+ 1.097222e-009 1.7009664519475216e+001
+ 1.099206e-009 1.7071243084254082e+001
+ 1.101190e-009 1.7133280452835322e+001
+ 1.103175e-009 1.7195779953376281e+001
+ 1.105159e-009 1.7258747061761010e+001
+ 1.107143e-009 1.7322188023812199e+001
+ 1.109127e-009 1.7386109232522152e+001
+ 1.111111e-009 1.7450517603965324e+001
+ 1.113095e-009 1.7515419859575889e+001
+ 1.115079e-009 1.7580821974465398e+001
+ 1.117063e-009 1.7646729681033332e+001
+ 1.119048e-009 1.7713147666431396e+001
+ 1.121032e-009 1.7780079532397160e+001
+ 1.123016e-009 1.7847530207095698e+001
+ 1.125000e-009 1.7915508247281842e+001
+ 1.126984e-009 1.7984023830506096e+001
+ 1.128968e-009 1.8053082932770906e+001
+ 1.130952e-009 1.8122688087757474e+001
+ 1.132937e-009 1.8192843365298160e+001
+ 1.134921e-009 1.8263558810884447e+001
+ 1.136905e-009 1.8334846957063476e+001
+ 1.138889e-009 1.8406713069044972e+001
+ 1.140873e-009 1.8479155394379688e+001
+ 1.142857e-009 1.8552177497110740e+001
+ 1.144841e-009 1.8625804537764676e+001
+ 1.146825e-009 1.8700040706488618e+001
+ 1.148810e-009 1.8774882731501698e+001
+ 1.150794e-009 1.8850346968112103e+001
+ 1.152778e-009 1.8926435958999182e+001
+ 1.154762e-009 1.9003157729513696e+001
+ 1.156746e-009 1.9080521363350908e+001
+ 1.158730e-009 1.9158536423155436e+001
+ 1.160714e-009 1.9237213507653347e+001
+ 1.162698e-009 1.9316562088207878e+001
+ 1.164683e-009 1.9396589200048854e+001
+ 1.166667e-009 1.9477301113181262e+001
+ 1.168651e-009 1.9558706118105576e+001
+ 1.170635e-009 1.9640813715006455e+001
+ 1.172619e-009 1.9723634226550590e+001
+ 1.174603e-009 1.9807179021566920e+001
+ 1.176587e-009 1.9891460205098795e+001
+ 1.178571e-009 1.9976486870847939e+001
+ 1.180556e-009 2.0062265738830092e+001
+ 1.182540e-009 2.0148805058854176e+001
+ 1.184524e-009 2.0236117505970544e+001
+ 1.186508e-009 2.0324217612244585e+001
+ 1.188492e-009 2.0413116311067533e+001
+ 1.190476e-009 2.0502821881081253e+001
+ 1.192460e-009 2.0593343172247877e+001
+ 1.194444e-009 2.0684691698955664e+001
+ 1.196429e-009 2.0776880072318988e+001
+ 1.198413e-009 2.0869921181974135e+001
+ 1.200397e-009 2.0963828485401404e+001
+ 1.202381e-009 2.1058615588515440e+001
+ 1.204365e-009 2.1154295405839438e+001
+ 1.206349e-009 2.1250880810521490e+001
+ 1.208333e-009 2.1348383877891891e+001
+ 1.210317e-009 2.1446815722499117e+001
+ 1.212302e-009 2.1546188496042546e+001
+ 1.214286e-009 2.1646518109218913e+001
+ 1.216270e-009 2.1747822654421217e+001
+ 1.218254e-009 2.1850116937263259e+001
+ 1.220238e-009 2.1953412402606784e+001
+ 1.222222e-009 2.2057721196761914e+001
+ 1.224206e-009 2.2163060600483764e+001
+ 1.226190e-009 2.2269450607459035e+001
+ 1.228175e-009 2.2376908065256078e+001
+ 1.230159e-009 2.2485446304149736e+001
+ 1.232143e-009 2.2595079006650664e+001
+ 1.234127e-009 2.2705824453762379e+001
+ 1.236111e-009 2.2817703399799399e+001
+ 1.238095e-009 2.2930735410519265e+001
+ 1.240079e-009 2.3044938632932965e+001
+ 1.242063e-009 2.3160331062635183e+001
+ 1.244048e-009 2.3276930281911802e+001
+ 1.246032e-009 2.3394753474064583e+001
+ 1.248016e-009 2.3513820455080968e+001
+ 1.250000e-009 2.3634154482848210e+001
+ 1.251984e-009 2.3755779685230898e+001
+ 1.253968e-009 2.3878716171953474e+001
+ 1.255952e-009 2.4002982134238128e+001
+ 1.257937e-009 2.4128598613900387e+001
+ 1.259921e-009 2.4255590706421224e+001
+ 1.261905e-009 2.4383984970507626e+001
+ 1.263889e-009 2.4513805998803544e+001
+ 1.265873e-009 2.4645078006134700e+001
+ 1.267857e-009 2.4777825147743396e+001
+ 1.269841e-009 2.4912071246406754e+001
+ 1.271825e-009 2.5047840696843611e+001
+ 1.273810e-009 2.5185161785976828e+001
+ 1.275794e-009 2.5324065866432672e+001
+ 1.277778e-009 2.5464582868189076e+001
+ 1.279762e-009 2.5606739200799094e+001
+ 1.281746e-009 2.5750561027657241e+001
+ 1.283730e-009 2.5896079698605440e+001
+ 1.285714e-009 2.6043330337457419e+001
+ 1.287698e-009 2.6192347231981969e+001
+ 1.289683e-009 2.6343161478233604e+001
+ 1.291667e-009 2.6495803892581936e+001
+ 1.293651e-009 2.6650308404584923e+001
+ 1.295635e-009 2.6806711121352201e+001
+ 1.297619e-009 2.6965049762203563e+001
+ 1.299603e-009 2.7125363735255750e+001
+ 1.301587e-009 2.7287694058031029e+001
+ 1.303571e-009 2.7452079619098079e+001
+ 1.305556e-009 2.7618557871466262e+001
+ 1.307540e-009 2.7787168768814965e+001
+ 1.309524e-009 2.7957957586655667e+001
+ 1.311508e-009 2.8130972520408964e+001
+ 1.313492e-009 2.8306259215421836e+001
+ 1.315476e-009 2.8483861800542158e+001
+ 1.317460e-009 2.8663826098331644e+001
+ 1.319444e-009 2.8846201583179237e+001
+ 1.321429e-009 2.9031040065255244e+001
+ 1.323413e-009 2.9218395353121579e+001
+ 1.325397e-009 2.9408323666961142e+001
+ 1.327381e-009 2.9600882343969381e+001
+ 1.329365e-009 2.9796127970120960e+001
+ 1.331349e-009 2.9994118354981602e+001
+ 1.333333e-009 3.0194912066015061e+001
+ 1.335317e-009 3.0398571335220499e+001
+ 1.337302e-009 3.0605163795967023e+001
+ 1.339286e-009 3.0814759950729091e+001
+ 1.341270e-009 3.1027428340069854e+001
+ 1.343254e-009 3.1243236857054494e+001
+ 1.345238e-009 3.1462257356118720e+001
+ 1.347222e-009 3.1684568137636759e+001
+ 1.349206e-009 3.1910251162500561e+001
+ 1.351190e-009 3.2139388914790977e+001
+ 1.353175e-009 3.2372065402615739e+001
+ 1.355159e-009 3.2608366914374322e+001
+ 1.357143e-009 3.2848382153949210e+001
+ 1.359127e-009 3.3092202402779101e+001
+ 1.361111e-009 3.3339925407927453e+001
+ 1.363095e-009 3.3591654825027348e+001
+ 1.365079e-009 3.3847496863664347e+001
+ 1.367063e-009 3.4107558037457281e+001
+ 1.369048e-009 3.4371947353580772e+001
+ 1.371032e-009 3.4640780329482538e+001
+ 1.373016e-009 3.4914178292316087e+001
+ 1.375000e-009 3.5192267824169129e+001
+ 1.376984e-009 3.5475181354300695e+001
+ 1.378968e-009 3.5763056983408546e+001
+ 1.380952e-009 3.6056036062901484e+001
+ 1.382937e-009 3.6354263567137401e+001
+ 1.384921e-009 3.6657890809994498e+001
+ 1.386905e-009 3.6967078324925716e+001
+ 1.388889e-009 3.7281994270847491e+001
+ 1.390873e-009 3.7602813569172220e+001
+ 1.392857e-009 3.7929718399188836e+001
+ 1.394841e-009 3.8262898837059474e+001
+ 1.396825e-009 3.8602553514834575e+001
+ 1.398810e-009 3.8948889823554218e+001
+ 1.400794e-009 3.9302124356511399e+001
+ 1.402778e-009 3.9662483262720087e+001
+ 1.404762e-009 4.0030203751381435e+001
+ 1.406746e-009 4.0405536853888961e+001
+ 1.408730e-009 4.0788746820707743e+001
+ 1.410714e-009 4.1180110492680051e+001
+ 1.412698e-009 4.1579918153603771e+001
+ 1.414683e-009 4.1988474561834060e+001
+ 1.416667e-009 4.2406099802921617e+001
+ 1.418651e-009 4.2833130184661236e+001
+ 1.420635e-009 4.3269921522656546e+001
+ 1.422619e-009 4.3716850642541445e+001
+ 1.424603e-009 4.4174315785321788e+001
+ 1.426587e-009 4.4642738180677526e+001
+ 1.428571e-009 4.5122563399636995e+001
+ 1.430556e-009 4.5614269384720977e+001
+ 1.432540e-009 4.6118369866135673e+001
+ 1.434524e-009 4.6635414305373587e+001
+ 1.436508e-009 4.7165990923112034e+001
+ 1.438492e-009 4.7710729733839763e+001
+ 1.440476e-009 4.8270311566304031e+001
+ 1.442460e-009 4.8845474104089860e+001
+ 1.444444e-009 4.9437014024340343e+001
+ 1.446429e-009 5.0045791120830380e+001